<?xml version="1.0" encoding="UTF-8"?>

<!-- generated on Fri Jul 17 16:03:48 2020 by Eclipse SUMO duarouter Version 1.6.0
<configuration xmlns:xsi="http://www.w3.org/2001/XMLSchema-instance" xsi:noNamespaceSchemaLocation="http://sumo.dlr.de/xsd/duarouterConfiguration.xsd">

    <input>
        <net-file value="/home/shuto/sumo/tools/2020-07-17-16-02-53/osm.net.xml"/>
        <route-files value="/home/shuto/sumo/tools/2020-07-17-16-02-53/osm.passenger.trips.xml"/>
    </input>

    <output>
        <output-file value="/home/shuto/sumo/tools/2020-07-17-16-02-53/osm.passenger.trips.xml.tmp"/>
        <write-trips value="true"/>
    </output>

    <time>
        <begin value="0"/>
        <end value="3600.0"/>
    </time>

    <report>
        <no-warnings value="true"/>
        <ignore-errors value="true"/>
        <no-step-log value="true"/>
    </report>

</configuration>
-->

<routes xmlns:xsi="http://www.w3.org/2001/XMLSchema-instance" xsi:noNamespaceSchemaLocation="http://sumo.dlr.de/xsd/routes_file.xsd">
    <vType id="veh_passenger" vClass="passenger"/>
    <trip id="veh0" type="veh_passenger" depart="0.00" departLane="best" from="41204032#2" to="-201096053"/>
    <trip id="veh1" type="veh_passenger" depart="3.31" departLane="best" from="-91667161#0" to="-89907128#0"/>
    <trip id="veh2" type="veh_passenger" depart="6.63" departLane="best" from="586187434#8" to="562750760"/>
    <trip id="veh3" type="veh_passenger" depart="9.94" departLane="best" from="91205173#11" to="-274936039#17"/>
    <trip id="veh4" type="veh_passenger" depart="13.26" departLane="best" from="273034619#0" to="-202548523#1"/>
    <trip id="veh5" type="veh_passenger" depart="16.57" departLane="best" from="-89907127#2" to="28341901#7"/>
    <trip id="veh6" type="veh_passenger" depart="19.88" departLane="best" from="-201096056" to="-87338876#4"/>
    <trip id="veh7" type="veh_passenger" depart="23.20" departLane="best" from="459195546" to="35868088#5"/>
    <trip id="veh8" type="veh_passenger" depart="26.51" departLane="best" from="-89907127#4" to="379748559#8"/>
    <trip id="veh9" type="veh_passenger" depart="29.83" departLane="best" from="87338871#7" to="-157229736"/>
    <trip id="veh10" type="veh_passenger" depart="33.14" departLane="best" from="87338871#2" to="586187413#4"/>
    <trip id="veh11" type="veh_passenger" depart="36.46" departLane="best" from="117159212#7" to="-562750752"/>
    <trip id="veh12" type="veh_passenger" depart="39.77" departLane="best" from="91364328#3" to="117159212#9"/>
    <trip id="veh13" type="veh_passenger" depart="43.08" departLane="best" from="-274936039#9" to="-28524049#5"/>
    <trip id="veh14" type="veh_passenger" depart="46.40" departLane="best" departSpeed="max" from="89907131#0" to="41204026#0"/>
    <trip id="veh15" type="veh_passenger" depart="49.71" departLane="best" from="87338871#3" to="586192044#2"/>
    <trip id="veh16" type="veh_passenger" depart="53.03" departLane="best" from="30644544#3" to="91667176#1"/>
    <trip id="veh17" type="veh_passenger" depart="56.34" departLane="best" from="202548487#3" to="35868089#6"/>
    <trip id="veh18" type="veh_passenger" depart="59.65" departLane="best" from="89907124#3" to="41204032#0"/>
    <trip id="veh19" type="veh_passenger" depart="62.97" departLane="best" from="89907134#6" to="37452624#0"/>
    <trip id="veh20" type="veh_passenger" depart="66.28" departLane="best" from="574904866" to="-272793967"/>
    <trip id="veh21" type="veh_passenger" depart="69.60" departLane="best" from="-89907136#1" to="-91667173"/>
    <trip id="veh22" type="veh_passenger" depart="72.91" departLane="best" from="-296684660#3" to="-91667161#2"/>
    <trip id="veh24" type="veh_passenger" depart="79.54" departLane="best" from="-91364324#0" to="91252226#5"/>
    <trip id="veh25" type="veh_passenger" depart="82.85" departLane="best" from="-586187400#6" to="202548530#2"/>
    <trip id="veh26" type="veh_passenger" depart="86.17" departLane="best" from="91667180#3" to="476097600#3"/>
    <trip id="veh27" type="veh_passenger" depart="89.48" departLane="best" from="34634618#5" to="586187401#0"/>
    <trip id="veh28" type="veh_passenger" depart="92.80" departLane="best" from="89907129#0" to="600354716#2"/>
    <trip id="veh29" type="veh_passenger" depart="96.11" departLane="best" from="-91667184#7" to="-91364323#1"/>
    <trip id="veh30" type="veh_passenger" depart="99.42" departLane="best" from="-89907124#2" to="91364317"/>
    <trip id="veh31" type="veh_passenger" depart="102.74" departLane="best" from="89907137#4" to="-91667184#2"/>
    <trip id="veh32" type="veh_passenger" depart="106.05" departLane="best" departSpeed="max" from="476097600#0" to="229550319#0"/>
    <trip id="veh33" type="veh_passenger" depart="109.37" departLane="best" from="91215101" to="27427949#0"/>
    <trip id="veh34" type="veh_passenger" depart="112.68" departLane="best" from="-91364321#2" to="-91252218#0"/>
    <trip id="veh35" type="veh_passenger" depart="116.00" departLane="best" from="35868088#4" to="-91364318#4"/>
    <trip id="veh36" type="veh_passenger" depart="119.31" departLane="best" from="37247674#1" to="91205173#7"/>
    <trip id="veh37" type="veh_passenger" depart="122.62" departLane="best" from="202640209#3" to="-89907127#1"/>
    <trip id="veh38" type="veh_passenger" depart="125.94" departLane="best" from="91667184#6" to="28524049#4"/>
    <trip id="veh39" type="veh_passenger" depart="129.25" departLane="best" from="-274936039#7" to="-273034619#10"/>
    <trip id="veh40" type="veh_passenger" depart="132.57" departLane="best" from="-30644544#5" to="41204036#1"/>
    <trip id="veh41" type="veh_passenger" depart="135.88" departLane="best" from="66088108#9" to="273034619#22"/>
    <trip id="veh42" type="veh_passenger" depart="139.19" departLane="best" from="-273034619#22" to="202548532#2"/>
    <trip id="veh43" type="veh_passenger" depart="142.51" departLane="best" from="91667184#3" to="30644546#3"/>
    <trip id="veh44" type="veh_passenger" depart="145.82" departLane="best" from="91667174#0" to="89907134#1"/>
    <trip id="veh45" type="veh_passenger" depart="149.14" departLane="best" from="-157514980#2" to="586187435#0"/>
    <trip id="veh46" type="veh_passenger" depart="152.45" departLane="best" from="485965294#0" to="34634618#5"/>
    <trip id="veh47" type="veh_passenger" depart="155.76" departLane="best" from="-91364324#0" to="476097600#7"/>
    <trip id="veh48" type="veh_passenger" depart="159.08" departLane="best" from="-30644544#8" to="273924630#12"/>
    <trip id="veh49" type="veh_passenger" depart="162.39" departLane="best" departSpeed="max" from="273924630#0" to="91364324#2"/>
    <trip id="veh50" type="veh_passenger" depart="165.71" departLane="best" departSpeed="max" from="28341901#0" to="-586192044#4"/>
    <trip id="veh51" type="veh_passenger" depart="169.02" departLane="best" from="91215088#2" to="89907136#4"/>
    <trip id="veh52" type="veh_passenger" depart="172.34" departLane="best" from="-91667177#2" to="476097600#16"/>
    <trip id="veh53" type="veh_passenger" depart="175.65" departLane="best" from="379748559#8" to="-548136028#0"/>
    <trip id="veh54" type="veh_passenger" depart="178.96" departLane="best" from="600354684#8" to="35868088#11"/>
    <trip id="veh55" type="veh_passenger" depart="182.28" departLane="best" from="600354712#1" to="30644546#7"/>
    <trip id="veh56" type="veh_passenger" depart="185.59" departLane="best" from="-117159196" to="117159125#6"/>
    <trip id="veh57" type="veh_passenger" depart="188.91" departLane="best" from="-201096043" to="91252221"/>
    <trip id="veh58" type="veh_passenger" depart="192.22" departLane="best" from="89907137#8" to="87338882#6"/>
    <trip id="veh59" type="veh_passenger" depart="195.53" departLane="best" from="-91667180#5" to="-273034619#18"/>
    <trip id="veh60" type="veh_passenger" depart="198.85" departLane="best" from="89907137#7" to="91364319#1"/>
    <trip id="veh61" type="veh_passenger" depart="202.16" departLane="best" from="-273034619#7" to="600354699#2"/>
    <trip id="veh62" type="veh_passenger" depart="205.48" departLane="best" from="600354693#0" to="-409754584#5"/>
    <trip id="veh63" type="veh_passenger" depart="208.79" departLane="best" from="-91364323#0" to="89907137#11"/>
    <trip id="veh64" type="veh_passenger" depart="212.11" departLane="best" from="273034619#10" to="-89907124#1"/>
    <trip id="veh65" type="veh_passenger" depart="215.42" departLane="best" from="30644544#8" to="586192044#3"/>
    <trip id="veh66" type="veh_passenger" depart="218.73" departLane="best" from="-87338878#0" to="-91667182"/>
    <trip id="veh67" type="veh_passenger" depart="222.05" departLane="best" from="91667184#2" to="485965224#11"/>
    <trip id="veh68" type="veh_passenger" depart="225.36" departLane="best" from="273034619#21" to="296684660#7"/>
    <trip id="veh69" type="veh_passenger" depart="228.68" departLane="best" from="-37247674#0" to="-89907128#2"/>
    <trip id="veh70" type="veh_passenger" depart="231.99" departLane="best" from="117159212#4" to="379748559#8"/>
    <trip id="veh71" type="veh_passenger" depart="235.30" departLane="best" from="-89907136#4" to="-89907127#2"/>
    <trip id="veh72" type="veh_passenger" depart="238.62" departLane="best" from="-273034619#9" to="462362574#1"/>
    <trip id="veh73" type="veh_passenger" depart="241.93" departLane="best" from="-89907136#3" to="91208039#3"/>
    <trip id="veh74" type="veh_passenger" depart="245.25" departLane="best" from="89907134#3" to="-273034619#8"/>
    <trip id="veh75" type="veh_passenger" depart="248.56" departLane="best" from="-91208039#2" to="538631660#0"/>
    <trip id="veh76" type="veh_passenger" depart="251.88" departLane="best" from="-89907125#0" to="-41204036#4"/>
    <trip id="veh77" type="veh_passenger" depart="255.19" departLane="best" from="91252226#3" to="37452621#2"/>
    <trip id="veh78" type="veh_passenger" depart="258.50" departLane="best" from="273924630#7" to="66088108#14"/>
    <trip id="veh79" type="veh_passenger" depart="261.82" departLane="best" from="87338871#4" to="-66088108#6"/>
    <trip id="veh80" type="veh_passenger" depart="265.13" departLane="best" from="-28524052#2" to="273254456#2"/>
    <trip id="veh81" type="veh_passenger" depart="268.45" departLane="best" from="273034619#10" to="274936037#0"/>
    <trip id="veh82" type="veh_passenger" depart="271.76" departLane="best" from="586187418#7" to="549535051"/>
    <trip id="veh83" type="veh_passenger" depart="275.07" departLane="best" from="91667178#3" to="-28524052#4"/>
    <trip id="veh84" type="veh_passenger" depart="278.39" departLane="best" from="218058803" to="117340965#1"/>
    <trip id="veh85" type="veh_passenger" depart="281.70" departLane="best" from="89907134#6" to="-91252218#4"/>
    <trip id="veh86" type="veh_passenger" depart="285.02" departLane="best" from="-66088108#8" to="273924630#22"/>
    <trip id="veh87" type="veh_passenger" depart="288.33" departLane="best" from="273034619#0" to="-91667161#2"/>
    <trip id="veh88" type="veh_passenger" depart="291.64" departLane="best" from="-91252220#2" to="91252218#0"/>
    <trip id="veh89" type="veh_passenger" depart="294.96" departLane="best" from="273034619#26" to="89907134#2"/>
    <trip id="veh90" type="veh_passenger" depart="298.27" departLane="best" departSpeed="max" from="33884440#0" to="-273034619#13"/>
    <trip id="veh91" type="veh_passenger" depart="301.59" departLane="best" from="91667184#8" to="89907124#4"/>
    <trip id="veh92" type="veh_passenger" depart="304.90" departLane="best" from="91667170#1" to="91252219"/>
    <trip id="veh93" type="veh_passenger" depart="308.22" departLane="best" departSpeed="max" from="89907131#0" to="-586187403#2"/>
    <trip id="veh94" type="veh_passenger" depart="311.53" departLane="best" from="274936039#11" to="-89907124#4"/>
    <trip id="veh95" type="veh_passenger" depart="314.84" departLane="best" from="218058801" to="-273034619#18"/>
    <trip id="veh96" type="veh_passenger" depart="318.16" departLane="best" from="202548487#4" to="91667178#4"/>
    <trip id="veh97" type="veh_passenger" depart="321.47" departLane="best" from="-91364323#0" to="66088108#13"/>
    <trip id="veh98" type="veh_passenger" depart="324.79" departLane="best" departSpeed="max" from="273924630#0" to="273034619#23"/>
    <trip id="veh99" type="veh_passenger" depart="328.10" departLane="best" from="91364328#3" to="91667184#2"/>
    <trip id="veh100" type="veh_passenger" depart="331.41" departLane="best" departSpeed="max" from="34634618#0" to="586187434#9"/>
    <trip id="veh101" type="veh_passenger" depart="334.73" departLane="best" from="-562750755#0" to="-91667176#5"/>
    <trip id="veh102" type="veh_passenger" depart="338.04" departLane="best" from="91667170#0" to="37452624#3"/>
    <trip id="veh103" type="veh_passenger" depart="341.36" departLane="best" from="30644546#2" to="600354691"/>
    <trip id="veh104" type="veh_passenger" depart="344.67" departLane="best" from="-273034619#18" to="379748559#3"/>
    <trip id="veh105" type="veh_passenger" depart="347.99" departLane="best" from="28341901#11" to="89907129#2"/>
    <trip id="veh106" type="veh_passenger" depart="351.30" departLane="best" from="-562750764#1" to="91667161#1"/>
    <trip id="veh107" type="veh_passenger" depart="354.61" departLane="best" from="-274936037#6" to="-66088108#15"/>
    <trip id="veh108" type="veh_passenger" depart="357.93" departLane="best" from="37452623#3" to="562750752"/>
    <trip id="veh109" type="veh_passenger" depart="361.24" departLane="best" from="-91205175#4" to="-35868095#4"/>
    <trip id="veh110" type="veh_passenger" depart="364.56" departLane="best" from="91205173#0" to="-91215101"/>
    <trip id="veh111" type="veh_passenger" depart="367.87" departLane="best" from="37452623#2" to="41204032#1"/>
    <trip id="veh112" type="veh_passenger" depart="371.18" departLane="best" departSpeed="max" from="267676655" to="379748559#2"/>
    <trip id="veh113" type="veh_passenger" depart="374.50" departLane="best" from="28524049#2" to="91252226#2"/>
    <trip id="veh114" type="veh_passenger" depart="377.81" departLane="best" from="-87338882#1" to="586187434#7"/>
    <trip id="veh115" type="veh_passenger" depart="381.13" departLane="best" from="-91208039#3" to="229550319#0"/>
    <trip id="veh116" type="veh_passenger" depart="384.44" departLane="best" from="485965224#2" to="-91667177#1"/>
    <trip id="veh117" type="veh_passenger" depart="387.76" departLane="best" from="-91667184#8" to="600354692#0"/>
    <trip id="veh118" type="veh_passenger" depart="391.07" departLane="best" from="-273254456#0" to="273924630#9"/>
    <trip id="veh119" type="veh_passenger" depart="394.38" departLane="best" from="-273254456#1" to="-89907124#3"/>
    <trip id="veh120" type="veh_passenger" depart="397.70" departLane="best" from="-91364323#0" to="91252226#0"/>
    <trip id="veh121" type="veh_passenger" depart="401.01" departLane="best" from="201096044#0" to="-562750760"/>
    <trip id="veh122" type="veh_passenger" depart="404.33" departLane="best" from="89907125#3" to="586187418#0"/>
    <trip id="veh123" type="veh_passenger" depart="407.64" departLane="best" from="409754577#11" to="91667179#1"/>
    <trip id="veh124" type="veh_passenger" depart="410.95" departLane="best" from="87338876#7" to="-91667176#9"/>
    <trip id="veh125" type="veh_passenger" depart="414.27" departLane="best" from="-463048372" to="-30644546#2"/>
    <trip id="veh126" type="veh_passenger" depart="417.58" departLane="best" from="-30644544#11" to="35868089#8"/>
    <trip id="veh127" type="veh_passenger" depart="420.90" departLane="best" from="-91364329" to="41204026#2"/>
    <trip id="veh128" type="veh_passenger" depart="424.21" departLane="best" from="41204030#6" to="-91364319#2"/>
    <trip id="veh129" type="veh_passenger" depart="427.52" departLane="best" from="274936039#16" to="91208039#3"/>
    <trip id="veh130" type="veh_passenger" depart="430.84" departLane="best" departSpeed="max" from="89907131#0" to="-274936039#8"/>
    <trip id="veh131" type="veh_passenger" depart="434.15" departLane="best" from="-157229627#0" to="600354700#6"/>
    <trip id="veh132" type="veh_passenger" depart="437.47" departLane="best" from="41204031#3" to="-91364318#3"/>
    <trip id="veh133" type="veh_passenger" depart="440.78" departLane="best" from="586192044#0" to="35868089#6"/>
    <trip id="veh134" type="veh_passenger" depart="444.10" departLane="best" from="-273254456#4" to="89907292#0"/>
    <trip id="veh135" type="veh_passenger" depart="447.41" departLane="best" departSpeed="max" from="91208040#0" to="35868088#6"/>
    <trip id="veh136" type="veh_passenger" depart="450.72" departLane="best" from="89907125#4" to="379748559#2"/>
    <trip id="veh137" type="veh_passenger" depart="454.04" departLane="best" from="-538631659" to="-409754584#4"/>
    <trip id="veh138" type="veh_passenger" depart="457.35" departLane="best" from="-91667180#6" to="91205173#9"/>
    <trip id="veh140" type="veh_passenger" depart="463.98" departLane="best" from="91205175#4" to="-87338882#8"/>
    <trip id="veh141" type="veh_passenger" depart="467.29" departLane="best" from="-91252220#1" to="-296684660#5"/>
    <trip id="veh142" type="veh_passenger" depart="470.61" departLane="best" from="600354716#0" to="89907292#10"/>
    <trip id="veh143" type="veh_passenger" depart="473.92" departLane="best" from="229155110" to="41204032#3"/>
    <trip id="veh144" type="veh_passenger" depart="477.24" departLane="best" from="-562750752" to="91252222"/>
    <trip id="veh145" type="veh_passenger" depart="480.55" departLane="best" from="89907135#2" to="91667176#3"/>
    <trip id="veh146" type="veh_passenger" depart="483.87" departLane="best" from="87338871#9" to="89907137#8"/>
    <trip id="veh147" type="veh_passenger" depart="487.18" departLane="best" from="-201096053" to="600354684#13"/>
    <trip id="veh148" type="veh_passenger" depart="490.49" departLane="best" from="117159147#4" to="91252223#2"/>
    <trip id="veh149" type="veh_passenger" depart="493.81" departLane="best" from="87338871#13" to="89907134#6"/>
    <trip id="veh150" type="veh_passenger" depart="497.12" departLane="best" from="87338871#9" to="-91364323#0"/>
    <trip id="veh151" type="veh_passenger" depart="500.44" departLane="best" from="66088108#16" to="-30644544#11"/>
    <trip id="veh153" type="veh_passenger" depart="507.06" departLane="best" from="-89907128#1" to="87338871#9"/>
    <trip id="veh154" type="veh_passenger" depart="510.38" departLane="best" from="273924630#13" to="-91667178#5"/>
    <trip id="veh155" type="veh_passenger" depart="513.69" departLane="best" from="662249666#1" to="-89907135#0"/>
    <trip id="veh156" type="veh_passenger" depart="517.01" departLane="best" from="-201096051" to="-662249665#0"/>
    <trip id="veh157" type="veh_passenger" depart="520.32" departLane="best" departSpeed="max" from="117159147#0" to="89907134#6"/>
    <trip id="veh158" type="veh_passenger" depart="523.64" departLane="best" from="41204032#5" to="258091333#5"/>
    <trip id="veh159" type="veh_passenger" depart="526.95" departLane="best" from="91667177#2" to="34634618#1"/>
    <trip id="veh160" type="veh_passenger" depart="530.26" departLane="best" from="91252226#8" to="-30644546#2"/>
    <trip id="veh161" type="veh_passenger" depart="533.58" departLane="best" from="91667172#1" to="-586192044#4"/>
    <trip id="veh162" type="veh_passenger" depart="536.89" departLane="best" from="91667161#3" to="-91364321#0"/>
    <trip id="veh163" type="veh_passenger" depart="540.21" departLane="best" from="-30644544#3" to="273924630#12"/>
    <trip id="veh164" type="veh_passenger" depart="543.52" departLane="best" from="586187418#6" to="-91667184#1"/>
    <trip id="veh165" type="veh_passenger" depart="546.83" departLane="best" from="379748559#6" to="28524052#4"/>
    <trip id="veh166" type="veh_passenger" depart="550.15" departLane="best" from="202548528#1" to="37452623#5"/>
    <trip id="veh167" type="veh_passenger" depart="553.46" departLane="best" from="-91252227#1" to="586187418#5"/>
    <trip id="veh168" type="veh_passenger" depart="556.78" departLane="best" from="-117340981#0" to="91252218#4"/>
    <trip id="veh169" type="veh_passenger" depart="560.09" departLane="best" from="30644544#7" to="586187434#9"/>
    <trip id="veh170" type="veh_passenger" depart="563.40" departLane="best" from="200716196#1" to="-273034619#8"/>
    <trip id="veh171" type="veh_passenger" depart="566.72" departLane="best" from="476097600#7" to="117159212#11"/>
    <trip id="veh172" type="veh_passenger" depart="570.03" departLane="best" from="-91667184#5" to="89907128#3"/>
    <trip id="veh173" type="veh_passenger" depart="573.35" departLane="best" from="586187414#2" to="-91667177#2"/>
    <trip id="veh174" type="veh_passenger" depart="576.66" departLane="best" from="-91667180#8" to="273034619#12"/>
    <trip id="veh175" type="veh_passenger" depart="579.98" departLane="best" from="218058803" to="-91667176#3"/>
    <trip id="veh176" type="veh_passenger" depart="583.29" departLane="best" from="-409754584#5" to="273034619#21"/>
    <trip id="veh177" type="veh_passenger" depart="586.60" departLane="best" from="91252227#1" to="562750760"/>
    <trip id="veh178" type="veh_passenger" depart="589.92" departLane="best" from="91208039#3" to="41204031#1"/>
    <trip id="veh179" type="veh_passenger" depart="593.23" departLane="best" from="-91667178#1" to="35868088#9"/>
    <trip id="veh180" type="veh_passenger" depart="596.55" departLane="best" from="-117159196" to="-91667170#1"/>
    <trip id="veh181" type="veh_passenger" depart="599.86" departLane="best" from="273034619#15" to="37452626#0"/>
    <trip id="veh182" type="veh_passenger" depart="603.17" departLane="best" departSpeed="max" from="476097600#0" to="27427949#9"/>
    <trip id="veh183" type="veh_passenger" depart="606.49" departLane="best" from="273034619#26" to="-89907124#4"/>
    <trip id="veh184" type="veh_passenger" depart="609.80" departLane="best" from="273924630#7" to="91205175#3"/>
    <trip id="veh185" type="veh_passenger" depart="613.12" departLane="best" from="-274936039#14" to="296684660#4"/>
    <trip id="veh186" type="veh_passenger" depart="616.43" departLane="best" from="41204030#4" to="117159212#6"/>
    <trip id="veh187" type="veh_passenger" depart="619.75" departLane="best" from="87338876#9" to="600354692#0"/>
    <trip id="veh188" type="veh_passenger" depart="623.06" departLane="best" from="485965224#4" to="-89907128#2"/>
    <trip id="veh189" type="veh_passenger" depart="626.37" departLane="best" from="-87338876#7" to="-201096051"/>
    <trip id="veh190" type="veh_passenger" depart="629.69" departLane="best" from="-91252218#0" to="274936039#17"/>
    <trip id="veh191" type="veh_passenger" depart="633.00" departLane="best" from="89907131#2" to="-273254456#0"/>
    <trip id="veh192" type="veh_passenger" depart="636.32" departLane="best" departSpeed="max" from="262805248#0" to="41204040"/>
    <trip id="veh193" type="veh_passenger" depart="639.63" departLane="best" from="-87338876#1" to="586187413#1"/>
    <trip id="veh195" type="veh_passenger" depart="646.26" departLane="best" departSpeed="max" from="476097600#0" to="-157229645"/>
    <trip id="veh196" type="veh_passenger" depart="649.57" departLane="best" from="-30644544#10" to="273034619#26"/>
    <trip id="veh197" type="veh_passenger" depart="652.89" departLane="best" from="-586192044#2" to="91364329"/>
    <trip id="veh198" type="veh_passenger" depart="656.20" departLane="best" from="28341901#6" to="-273034619#12"/>
    <trip id="veh199" type="veh_passenger" depart="659.52" departLane="best" from="-91252220#1" to="89907128#3"/>
    <trip id="veh200" type="veh_passenger" depart="662.83" departLane="best" from="485965223#1" to="91667180#0"/>
    <trip id="veh201" type="veh_passenger" depart="666.14" departLane="best" from="37452623#3" to="91364321#2"/>
    <trip id="veh202" type="veh_passenger" depart="669.46" departLane="best" from="586187414#2" to="28341901#7"/>
    <trip id="veh203" type="veh_passenger" depart="672.77" departLane="best" from="89907124#4" to="35868088#9"/>
    <trip id="veh204" type="veh_passenger" depart="676.09" departLane="best" from="91205175#0" to="600354684#8"/>
    <trip id="veh205" type="veh_passenger" depart="679.40" departLane="best" from="273924630#8" to="-91364317"/>
    <trip id="veh206" type="veh_passenger" depart="682.71" departLane="best" from="-91252218#4" to="476097600#14"/>
    <trip id="veh207" type="veh_passenger" depart="686.03" departLane="best" from="600354693#0" to="30644544#11"/>
    <trip id="veh208" type="veh_passenger" depart="689.34" departLane="best" from="41204028#3" to="-91364330#0"/>
    <trip id="veh209" type="veh_passenger" depart="692.66" departLane="best" from="-274936036" to="-91667170#0"/>
    <trip id="veh210" type="veh_passenger" depart="695.97" departLane="best" from="-91364328#3" to="117159125#1"/>
    <trip id="veh211" type="veh_passenger" depart="699.29" departLane="best" from="30644544#9" to="-485965225#1"/>
    <trip id="veh212" type="veh_passenger" depart="702.60" departLane="best" from="-91205172#1" to="586187408#1"/>
    <trip id="veh213" type="veh_passenger" depart="705.91" departLane="best" from="586187400#6" to="-273034619#22"/>
    <trip id="veh214" type="veh_passenger" depart="709.23" departLane="best" from="229550319#1" to="35868088#2"/>
    <trip id="veh215" type="veh_passenger" depart="712.54" departLane="best" departSpeed="max" from="262805248#0" to="-87338882#3"/>
    <trip id="veh216" type="veh_passenger" depart="715.86" departLane="best" departSpeed="max" from="267676655" to="91208039#2"/>
    <trip id="veh217" type="veh_passenger" depart="719.17" departLane="best" from="89907132#6" to="600354700#5"/>
    <trip id="veh218" type="veh_passenger" depart="722.48" departLane="best" from="202548521#0" to="-157229722"/>
    <trip id="veh219" type="veh_passenger" depart="725.80" departLane="best" from="157229592" to="600354692#0"/>
    <trip id="veh220" type="veh_passenger" depart="729.11" departLane="best" departSpeed="max" from="89907132#0" to="91364324#2"/>
    <trip id="veh221" type="veh_passenger" depart="732.43" departLane="best" from="-89907127#5" to="-89907127#1"/>
    <trip id="veh222" type="veh_passenger" depart="735.74" departLane="best" from="273034619#19" to="-202548522#1"/>
    <trip id="veh223" type="veh_passenger" depart="739.05" departLane="best" from="117159212#14" to="562750764#2"/>
    <trip id="veh224" type="veh_passenger" depart="742.37" departLane="best" from="218058805" to="-586187403#0"/>
    <trip id="veh225" type="veh_passenger" depart="745.68" departLane="best" from="273924630#21" to="-409754584#4"/>
    <trip id="veh228" type="veh_passenger" depart="755.63" departLane="best" from="-463048378" to="27427949#8"/>
    <trip id="veh229" type="veh_passenger" depart="758.94" departLane="best" from="-273034619#13" to="202548530#1"/>
    <trip id="veh230" type="veh_passenger" depart="762.25" departLane="best" from="-89907124#3" to="117159147#3"/>
    <trip id="veh231" type="veh_passenger" depart="765.57" departLane="best" from="600354684#7" to="202548530#1"/>
    <trip id="veh232" type="veh_passenger" depart="768.88" departLane="best" from="600354684#1" to="87338882#7"/>
    <trip id="veh233" type="veh_passenger" depart="772.20" departLane="best" from="-91252225#0" to="-274936039#1"/>
    <trip id="veh234" type="veh_passenger" depart="775.51" departLane="best" from="-201096021" to="35868088#11"/>
    <trip id="veh235" type="veh_passenger" depart="778.82" departLane="best" from="91667184#9" to="157514926"/>
    <trip id="veh236" type="veh_passenger" depart="782.14" departLane="best" from="459195546" to="600354727"/>
    <trip id="veh237" type="veh_passenger" depart="785.45" departLane="best" from="463048372" to="600354693#4"/>
    <trip id="veh238" type="veh_passenger" depart="788.77" departLane="best" from="91364321#0" to="-87338876#5"/>
    <trip id="veh239" type="veh_passenger" depart="792.08" departLane="best" from="-201096044#0" to="-548136028#0"/>
    <trip id="veh240" type="veh_passenger" depart="795.40" departLane="best" from="-409754584#4" to="538631660#1"/>
    <trip id="veh241" type="veh_passenger" depart="798.71" departLane="best" from="35868088#8" to="-89907125#4"/>
    <trip id="veh242" type="veh_passenger" depart="802.02" departLane="best" from="562750755#1" to="600354700#6"/>
    <trip id="veh243" type="veh_passenger" depart="805.34" departLane="best" from="-586187404#1" to="41204028#4"/>
    <trip id="veh244" type="veh_passenger" depart="808.65" departLane="best" departSpeed="max" from="600354684#0" to="-30644546#11"/>
    <trip id="veh245" type="veh_passenger" depart="811.97" departLane="best" from="87338878#0" to="91667163#2"/>
    <trip id="veh246" type="veh_passenger" depart="815.28" departLane="best" from="-30644544#2" to="-201096054"/>
    <trip id="veh247" type="veh_passenger" depart="818.59" departLane="best" from="-91667184#1" to="562750760"/>
    <trip id="veh248" type="veh_passenger" depart="821.91" departLane="best" from="91364329" to="229550319#2"/>
    <trip id="veh249" type="veh_passenger" depart="825.22" departLane="best" from="586187413#0" to="-273254456#4"/>
    <trip id="veh250" type="veh_passenger" depart="828.54" departLane="best" from="548136027" to="41204036#1"/>
    <trip id="veh251" type="veh_passenger" depart="831.85" departLane="best" from="-296684660#4" to="600354700#6"/>
    <trip id="veh252" type="veh_passenger" depart="835.17" departLane="best" departSpeed="max" from="89907132#0" to="409754584#4"/>
    <trip id="veh253" type="veh_passenger" depart="838.48" departLane="best" from="-37247674#0" to="91667178#2"/>
    <trip id="veh254" type="veh_passenger" depart="841.79" departLane="best" from="600354727" to="157229736"/>
    <trip id="veh255" type="veh_passenger" depart="845.11" departLane="best" from="273034619#14" to="202548487#3"/>