<?xml version="1.0" encoding="UTF-8"?>

<!-- generated on Fri Jul 17 16:03:47 2020 by Eclipse SUMO polyconvert Version 1.6.0
<configuration xmlns:xsi="http://www.w3.org/2001/XMLSchema-instance" xsi:noNamespaceSchemaLocation="http://sumo.dlr.de/xsd/polyconvertConfiguration.xsd">

    <input>
        <net-file value="osm.net.xml"/>
        <osm-files value="osm_bbox.osm.xml"/>
        <osm.keep-full-type value="true"/>
        <type-file value="/usr/share/sumo/data/typemap/osmPolyconvert.typ.xml"/>
    </input>

    <output>
        <output-file value="osm.poly.xml"/>
    </output>

    <processing>
        <poi-layer-offset value="5"/>
    </processing>

    <report>
        <verbose value="true"/>
    </report>

</configuration>
-->

<additional xmlns:xsi="http://www.w3.org/2001/XMLSchema-instance" xsi:noNamespaceSchemaLocation="http://sumo.dlr.de/xsd/additional_file.xsd">
    <location netOffset="-565967.04,-3874406.22" convBoundary="-0.00,-0.00,4035.28,2667.09" origBoundary="135.723075,35.010026,135.767278,35.034042" projParameter="+proj=utm +zone=53 +ellps=WGS84 +datum=WGS84 +units=m +no_defs"/>

    <poly id="100604626" type="building.yes" color="255,230,230" fill="1" layer="-1.00" shape="2198.662621,691.506424 2198.606956,673.339613 2211.928977,673.239680 2211.891886,691.605429 2198.662621,691.506424"/>
    <poly id="100604628" type="building.yes" color="255,230,230" fill="1" layer="-1.00" shape="2182.963508,691.034062 2182.850733,679.277188 2188.535509,679.219904 2188.517600,676.735477 2196.228077,676.660081 2196.336524,687.773669 2189.365155,687.843503 2189.396497,690.971286 2182.963508,691.034062"/>
    <poly id="100604630" type="building.yes" color="255,230,230" fill="1" layer="-1.00" shape="2193.790788,709.736180 2202.576826,709.801926 2202.663884,698.168543 2193.877834,698.102797 2193.790788,709.736180"/>
    <poly id="100604634" type="building.yes" color="255,230,230" fill="1" layer="-1.00" shape="2134.705983,694.687957 2133.781276,673.143112 2149.470550,672.495165 2149.298711,684.493902 2146.834748,684.553112 2146.759454,694.622809 2134.705983,694.687957"/>
    <poly id="100604635" type="building.yes" color="255,230,230" fill="1" layer="-1.00" shape="2166.713655,695.881094 2166.726684,680.720349 2175.878111,680.733348 2175.880591,686.500476 2181.428010,686.508703 2181.421604,695.902389 2166.713655,695.881094"/>
    <poly id="100604639" type="building.yes" color="255,230,230" fill="1" layer="-1.00" shape="2204.326536,699.112595 2204.210685,695.085842 2210.881882,694.891776 2210.988524,698.929551 2204.326536,699.112595"/>
    <poly id="100604642" type="building.yes" color="255,230,230" fill="1" layer="-1.00" shape="2151.920443,696.280627 2151.828702,690.246658 2162.495969,690.093530 2162.578579,696.127431 2151.920443,696.280627"/>
    <poly id="100604646" type="building.yes" color="255,230,230" fill="1" layer="-1.00" shape="2203.166746,701.688025 2210.748475,701.744766 2210.690955,709.430119 2205.627350,709.392222 2205.617639,710.689749 2203.099523,710.670904 2203.166746,701.688025"/>
    <poly id="100604648" type="building.yes" color="255,230,230" fill="1" layer="-1.00" shape="2175.614640,712.295210 2181.034479,712.280302 2181.021723,704.228434 2175.601962,704.232252 2175.614640,712.295210"/>
    <poly id="100604650" type="building.yes" color="255,230,230" fill="1" layer="-1.00" shape="2134.899043,712.800340 2134.754370,705.302017 2146.425796,705.078744 2146.561253,712.588089 2134.899043,712.800340"/>
    <poly id="100604654" type="building.yes" color="255,230,230" fill="1" layer="-1.00" shape="2154.220750,687.602803 2161.335609,687.866733 2161.621178,680.183087 2154.515437,679.919225 2154.220750,687.602803"/>
    <poly id="100604656" type="building.yes" color="255,230,230" fill="1" layer="-1.00" shape="2185.190620,710.437085 2192.962858,710.639414 2193.235028,699.872483 2185.462697,699.681243 2185.190620,710.437085"/>
    <poly id="100604661" type="building.yes" color="255,230,230" fill="1" layer="-1.00" shape="2166.102200,709.318321 2165.856034,697.094644 2170.747292,696.998142 2170.835041,701.124500 2175.160550,701.034859 2175.318957,709.132178 2166.102200,709.318321"/>
    <poly id="100604664" type="building.yes" color="255,230,230" fill="1" layer="-1.00" shape="2147.910880,710.246975 2147.758417,700.131213 2154.748272,700.028213 2154.900727,710.143975 2147.910880,710.246975"/>
    <poly id="100615910" type="building.yes" color="255,230,230" fill="1" layer="-1.00" shape="2925.680573,1055.102881 2925.822115,1049.658456 2935.792437,1049.922415 2935.650889,1055.366840 2925.680573,1055.102881"/>
    <poly id="100615911" type="amenity.police" color="237,199,199" fill="1" layer="-1.00" shape="2988.209500,1088.382112 2988.759757,1048.238220 3042.840159,1048.969432 3042.289663,1089.113324 2988.209500,1088.382112"/>
    <poly id="100615911#1" type="building.public" color="255,230,230" fill="1" layer="-1.00" shape="2988.209500,1088.382112 2988.759757,1048.238220 3042.840159,1048.969432 3042.289663,1089.113324 2988.209500,1088.382112"/>
    <poly id="100615914" type="building.yes" color="255,230,230" fill="1" layer="-1.00" shape="2914.636728,1054.431552 2914.547162,1049.384642 2923.836342,1049.233084 2923.916780,1054.279925 2914.636728,1054.431552"/>
    <poly id="100615917" type="building.yes" color="255,230,230" fill="1" layer="-1.00" shape="2919.520545,1048.058108 2919.571121,1041.370846 2927.435398,1041.430327 2927.384816,1048.117589 2919.520545,1048.058108"/>
    <poly id="100615919" type="building.yes" color="255,230,230" fill="1" layer="-1.00" shape="2915.781234,1027.356911 2916.013064,1034.101761 2929.802647,1033.640435 2929.570827,1026.895584 2915.781234,1027.356911"/>
    <poly id="100615920" type="building.yes" color="255,230,230" fill="1" layer="-1.00" shape="3201.019468,1149.918389 3200.959090,1143.452093 3217.875681,1143.292219 3217.936047,1149.758516 3201.019468,1149.918389"/>
    <poly id="100615922" type="building.yes" color="255,230,230" fill="1" layer="-1.00" shape="3205.970356,1242.851120 3205.938759,1234.998712 3215.610089,1234.961265 3215.769402,1242.814643 3205.970356,1242.851120"/>
    <poly id="100615925" type="building.yes" color="255,230,230" fill="1" layer="-1.00" shape="2948.398144,996.106272 2944.001115,996.017551 2944.179792,988.078018 2948.567702,988.166670 2948.398144,996.106272"/>
    <poly id="100615926" type="building.yes" color="255,230,230" fill="1" layer="-1.00" shape="3217.825810,1250.748975 3217.805839,1244.970604 3223.883672,1244.772781 3223.772811,1238.949356 3227.012690,1238.818701 3226.654670,1254.719949 3220.377568,1254.727716 3220.380275,1250.768380 3217.825810,1250.748975"/>
    <poly id="100615931" type="building.yes" color="255,230,230" fill="1" layer="-1.00" shape="2914.606249,1005.377505 2914.543296,1000.430613 2926.049580,1000.284731 2926.112442,1005.242714 2914.606249,1005.377505"/>
    <poly id="100615933" type="building.yes" color="255,230,230" fill="1" layer="-1.00" shape="3217.319208,1241.772805 3223.269572,1241.540741 3222.978836,1234.174353 3217.037674,1234.395396 3217.319208,1241.772805"/>
    <poly id="100615934" type="building.yes" color="255,230,230" fill="1" layer="-1.00" shape="3188.016321,1126.130063 3188.072569,1118.721950 3206.224741,1119.259054 3206.077752,1126.599935 3188.016321,1126.130063"/>
    <poly id="100615940" type="building.yes" color="255,230,230" fill="1" layer="-1.00" shape="3220.143955,1166.577594 3220.187596,1148.821825 3225.369399,1148.883370 3225.377560,1151.412096 3228.780424,1151.449038 3228.609836,1166.697361 3220.143955,1166.577594"/>
    <poly id="100615944" type="building.yes" color="255,230,230" fill="1" layer="-1.00" shape="3242.897702,1220.706396 3242.895663,1229.379256 3239.665914,1229.376895 3239.666105,1230.552504 3237.029358,1230.554650 3237.037953,1229.423471 3232.229823,1229.420210 3232.229846,1230.617998 3229.593184,1230.609057 3229.592992,1229.433448 3224.757492,1229.429983 3224.755831,1230.849572 3222.128208,1230.851791 3222.119903,1229.543033 3214.054570,1229.548311 3214.054090,1230.812639 3211.362605,1230.814377 3211.371703,1229.616658 3206.335495,1229.611678 3206.342033,1231.153326 3203.276501,1231.152225 3203.276478,1226.349981 3204.936968,1226.351501 3204.943431,1220.695328 3242.897702,1220.706396"/>
    <poly id="100615946" type="building.yes" color="255,230,230" fill="1" layer="-1.00" shape="3203.772926,1007.202894 3203.804564,1001.835270 3205.866522,1001.839839 3205.895383,996.838184 3192.693656,996.771207 3192.668929,1001.229452 3190.515738,1001.224194 3190.480065,1007.124137 3203.772926,1007.202894"/>
    <poly id="100615950" type="building.yes" color="255,230,230" fill="1" layer="-1.00" shape="3197.406937,1167.879959 3197.351300,1161.990411 3219.368217,1161.802730 3219.423839,1167.692278 3197.406937,1167.879959"/>
    <poly id="100615954" type="building.yes" color="255,230,230" fill="1" layer="-1.00" shape="3187.399392,1149.704059 3187.272894,1141.130041 3197.337463,1140.984651 3197.463952,1149.558669 3187.399392,1149.704059"/>
    <poly id="100615955" type="building.yes" color="255,230,230" fill="1" layer="-1.00" shape="3204.616362,1255.351070 3204.689555,1245.713867 3215.518664,1245.796118 3215.445459,1255.433322 3204.616362,1255.351070"/>
    <poly id="100615962" type="building.yes" color="255,230,230" fill="1" layer="-1.00" shape="2852.242806,1082.917519 2852.554624,1058.553784 2882.450501,1058.923895 2882.147726,1083.287700 2852.242806,1082.917519"/>
    <poly id="100615968" type="leisure.pitch" color="207,245,201" fill="1" layer="-2.00" shape="2846.826475,1057.135268 2847.894684,1009.941664 2906.008669,1009.382749 2903.917565,1040.986296 2890.393090,1040.174244 2889.974199,1058.171154 2846.826475,1057.135268"/>
    <poly id="100615970" type="building.yes" color="255,230,230" fill="1" layer="-1.00" shape="3206.878320,1126.905462 3216.684339,1127.168483 3216.889361,1119.395508 3207.083250,1119.143577 3206.878320,1126.905462"/>
    <poly id="100615971" type="building.yes" color="255,230,230" fill="1" layer="-1.00" shape="3190.260615,1248.709670 3190.465755,1239.716725 3203.592376,1240.016039 3203.457769,1245.726693 3199.891061,1245.644152 3199.811394,1248.926374 3190.260615,1248.709670"/>
    <poly id="100615973" type="building.yes" color="255,230,230" fill="1" layer="-1.00" shape="2844.197453,1103.208022 2844.350787,1092.573276 2888.806152,1093.197596 2888.832210,1090.957487 2893.119966,1091.012084 2893.790848,1043.305305 2904.683553,1043.454206 2903.872693,1101.219121 2894.458021,1101.081394 2894.418394,1103.909203 2844.197453,1103.208022"/>
    <poly id="100615974" type="building.yes" color="255,230,230" fill="1" layer="-1.00" shape="3195.254454,927.474229 3195.172363,917.858032 3201.322305,917.804915 3201.347459,920.500128 3213.419171,920.403264 3213.402724,917.763570 3218.904820,917.716635 3218.884836,915.542720 3225.436211,915.492668 3225.463211,917.943902 3227.817306,917.928513 3227.892767,927.211941 3195.254454,927.474229"/>
    <poly id="100615976" type="building.yes" color="255,230,230" fill="1" layer="-1.00" shape="3189.044803,1161.306262 3188.916118,1153.020583 3205.532299,1152.769682 3205.580691,1156.008513 3209.832851,1155.940993 3209.913043,1160.998930 3189.044803,1161.306262"/>
    <poly id="100615984" type="building.yes" color="255,230,230" fill="1" layer="-1.00" shape="3193.180722,957.857893 3193.563655,933.860683 3221.689338,934.307183 3221.286510,959.712752 3219.142600,959.685377 3219.035970,966.516394 3195.955273,966.152568 3196.090911,957.902171 3193.180722,957.857893"/>
    <poly id="100615988" type="building.yes" color="255,230,230" fill="1" layer="-1.00" shape="2929.156972,1039.391584 2935.616600,1039.396085 2946.829547,1039.425462 2946.840607,1034.346041 2935.910475,1034.318803 2935.930254,1023.261603 2947.435167,1023.293189 2947.464486,1008.565066 2941.269496,1008.551469 2941.249566,1018.421971 2930.127742,1018.404381 2930.131410,1014.300879 2914.694084,1014.272847 2914.686146,1018.941939 2918.071063,1018.945356 2918.064633,1023.414828 2930.554947,1023.442754 2930.532071,1034.910284 2929.035766,1034.910056 2915.423218,1034.884735 2915.416705,1039.365296 2929.156972,1039.391584"/>
    <poly id="100615993" type="building.yes" color="255,230,230" fill="1" layer="-1.00" shape="2930.208840,1048.693481 2930.175489,1041.040700 2946.243117,1040.962622 2946.276454,1048.615403 2930.208840,1048.693481"/>
    <poly id="100616006" type="building.yes" color="255,230,230" fill="1" layer="-1.00" shape="3188.847455,1234.159121 3188.907979,1239.405449 3204.711795,1239.181653 3204.650353,1234.057314 3188.847455,1234.159121"/>
    <poly id="100616008" type="building.yes" color="255,230,230" fill="1" layer="-1.00" shape="3189.328990,1013.326150 3189.415528,1007.936761 3201.721973,1008.152204 3201.635511,1013.530502 3189.328990,1013.326150"/>
    <poly id="100616009" type="building.hospital" color="255,230,230" fill="1" layer="-1.00" shape="3002.306372,1036.484910 2986.322439,1036.352802 2986.884880,971.698731 3043.622651,972.183879 3043.240941,1016.543482 3002.487415,1016.190440 3002.306372,1036.484910"/>
    <poly id="100616010" type="building.yes" color="255,230,230" fill="1" layer="-1.00" shape="3193.344469,1212.655261 3193.633288,1180.627710 3232.780331,1180.980509 3232.654570,1195.131200 3228.010974,1195.084830 3227.843828,1213.482919 3213.940356,1213.355120 3214.001453,1206.512664 3206.666540,1206.445862 3206.609407,1212.767088 3193.344469,1212.655261"/>
    <poly id="100616011" type="building.yes" color="255,230,230" fill="1" layer="-1.00" shape="2932.947576,1005.061512 2933.063367,998.197294 2946.045033,998.406408 2945.929149,1005.281716 2932.947576,1005.061512"/>
    <poly id="100616013" type="building.yes" color="255,230,230" fill="1" layer="-1.00" shape="3187.640963,1138.315816 3187.578499,1133.324558 3218.355445,1132.981577 3218.408769,1137.972766 3187.640963,1138.315816"/>
    <poly id="100616018" type="building.yes" color="255,230,230" fill="1" layer="-1.00" shape="2914.619735,987.909880 2914.749835,980.358152 2926.600231,980.558682 2926.470037,988.121501 2914.619735,987.909880"/>
    <poly id="100616019" type="amenity.fire_station" color="237,199,199" fill="1" layer="-1.00" shape="2917.316247,1089.797628 2916.788722,1071.483021 2925.957096,1071.618908 2925.906538,1056.590733 2946.817255,1056.726740 2947.502396,1089.171994 2917.316247,1089.797628"/>
    <poly id="100616019#1" type="building.yes" color="255,230,230" fill="1" layer="-1.00" shape="2917.316247,1089.797628 2916.788722,1071.483021 2925.957096,1071.618908 2925.906538,1056.590733 2946.817255,1056.726740 2947.502396,1089.171994 2917.316247,1089.797628"/>
    <poly id="100616027" type="building.yes" color="255,230,230" fill="1" layer="-1.00" shape="2937.063990,1055.510617 2937.224625,1049.955431 2948.608804,1050.263371 2948.457286,1055.818627 2937.063990,1055.510617"/>
    <poly id="102159480" type="building.yes" color="255,230,230" fill="1" layer="-1.00" shape="2720.591995,910.429574 2715.574533,910.336287 2715.713255,902.828987 2720.730722,902.922275 2720.591995,910.429574"/>
    <poly id="102159481" type="building.yes" color="255,230,230" fill="1" layer="-1.00" shape="2735.127263,842.575916 2740.354018,842.748426 2740.768450,830.141525 2735.550812,829.969084 2735.127263,842.575916"/>
    <poly id="102159482" type="building.yes" color="255,230,230" fill="1" layer="-1.00" shape="2770.644593,920.278536 2770.591519,914.011938 2774.405610,913.974177 2774.370955,910.103291 2781.515514,910.035215 2781.534849,912.308937 2785.348856,912.282272 2785.417236,920.146034 2770.644593,920.278536"/>
    <poly id="102159483" type="building.yes" color="255,230,230" fill="1" layer="-1.00" shape="2656.068045,938.213207 2656.215923,942.805835 2673.135026,942.356605 2673.308314,937.522404 2656.068045,938.213207"/>
    <poly id="102159485" type="building.yes" color="255,230,230" fill="1" layer="-1.00" shape="2657.217072,881.371388 2657.272647,887.316375 2676.032783,887.147193 2675.977220,881.202206 2657.217072,881.371388"/>
    <poly id="102159486" type="building.yes" color="255,230,230" fill="1" layer="-1.00" shape="2746.211980,888.663391 2746.221545,894.652394 2763.155730,894.635977 2763.260771,892.806818 2762.176086,892.665547 2762.172985,890.658122 2763.870112,890.648746 2763.867011,888.641322 2746.211980,888.663391"/>
    <poly id="102159487" type="building.yes" color="255,230,230" fill="1" layer="-1.00" shape="2728.002734,941.605723 2733.294550,941.612362 2733.302639,935.701126 2728.019943,935.694556 2728.002734,941.605723"/>
    <poly id="102159488" type="building.yes" color="255,230,230" fill="1" layer="-1.00" shape="2726.492993,880.473965 2726.530643,877.901227 2735.617267,878.014120 2735.579531,880.597948 2726.492993,880.473965"/>
    <poly id="102159489" type="building.yes" color="255,230,230" fill="1" layer="-1.00" shape="2704.903456,937.649645 2710.266923,937.834260 2710.534122,930.228114 2705.170650,930.043498 2704.903456,937.649645"/>
    <poly id="102159490" type="building.yes" color="255,230,230" fill="1" layer="-1.00" shape="2813.669107,915.967438 2813.657035,921.191028 2833.911927,921.222000 2833.924011,915.998411 2813.669107,915.967438"/>
    <poly id="102159491" type="building.yes" color="255,230,230" fill="1" layer="-1.00" shape="2811.559737,871.489232 2811.610083,858.779767 2821.801253,858.823452 2821.774448,863.581123 2836.910616,863.651079 2836.878009,871.591714 2811.559737,871.489232"/>
    <poly id="102159492" type="building.yes" color="255,230,230" fill="1" layer="-1.00" shape="2818.215963,904.678254 2821.327302,904.668478 2821.303801,900.531501 2818.192459,900.541277 2818.215963,904.678254"/>
    <poly id="102159493" type="building.yes" color="255,230,230" fill="1" layer="-1.00" shape="2826.835663,890.502999 2826.872265,885.656676 2838.148844,885.741849 2838.112237,890.588172 2826.835663,890.502999"/>
    <poly id="102159494" type="building.yes" color="255,230,230" fill="1" layer="-1.00" shape="2728.963524,909.782907 2728.959272,912.766250 2727.225739,912.764267 2727.220317,915.902870 2742.019248,915.914674 2742.028847,909.803818 2728.963524,909.782907"/>
    <poly id="102159495" type="building.yes" color="255,230,230" fill="1" layer="-1.00" shape="2826.650975,882.338911 2826.651836,877.392503 2838.184469,877.401975 2838.174478,882.348314 2826.650975,882.338911"/>
    <poly id="102159496" type="building.yes" color="255,230,230" fill="1" layer="-1.00" shape="2797.542956,899.597931 2797.541440,904.633059 2807.276639,904.640014 2807.287284,899.604955 2797.542956,899.597931"/>
    <poly id="102159497" type="building.yes" color="255,230,230" fill="1" layer="-1.00" shape="2657.521642,855.477106 2682.693376,854.446812 2682.625240,846.538693 2685.782383,846.507034 2685.732355,841.038986 2691.535646,840.982911 2691.459647,832.908373 2685.656351,832.964448 2685.636574,830.746177 2665.215844,830.902829 2657.794780,838.599255 2657.521642,855.477106"/>
    <poly id="102159497#1" type="leisure.adult_gaming_centre" color="207,245,201" fill="1" layer="-2.00" shape="2657.521642,855.477106 2682.693376,854.446812 2682.625240,846.538693 2685.782383,846.507034 2685.732355,841.038986 2691.535646,840.982911 2691.459647,832.908373 2685.656351,832.964448 2685.636574,830.746177 2665.215844,830.902829 2657.794780,838.599255 2657.521642,855.477106"/>
    <poly id="102159498" type="building.yes" color="255,230,230" fill="1" layer="-1.00" shape="2685.950309,928.334836 2685.977187,921.137231 2703.832115,921.216369 2703.805307,928.402885 2685.950309,928.334836"/>
    <poly id="102159499" type="building.yes" color="255,230,230" fill="1" layer="-1.00" shape="2789.865689,830.024004 2771.206288,830.127171 2771.333628,853.152246 2790.002105,853.049149 2789.865689,830.024004"/>
    <poly id="102159500" type="building.yes" color="255,230,230" fill="1" layer="-1.00" shape="2694.957833,942.565444 2695.151403,948.356203 2701.156427,948.157479 2700.971901,942.377878 2694.957833,942.565444"/>
    <poly id="102159501" type="building.yes" color="255,230,230" fill="1" layer="-1.00" shape="2656.369573,916.355883 2656.337239,920.647706 2671.350427,920.073207 2671.318319,915.858532 2656.369573,916.355883"/>
    <poly id="102159502" type="building.yes" color="255,230,230" fill="1" layer="-1.00" shape="2750.789598,862.402079 2750.924542,867.493688 2764.558343,867.152928 2764.423490,862.050228 2750.789598,862.402079"/>
    <poly id="102159503" type="building.yes" color="255,230,230" fill="1" layer="-1.00" shape="2770.568747,908.566274 2770.601720,904.196821 2781.723177,904.280753 2781.690198,908.650207 2770.568747,908.566274"/>
    <poly id="102159504" type="building.yes" color="255,230,230" fill="1" layer="-1.00" shape="2729.497151,842.655450 2734.250488,842.691300 2734.333796,831.645678 2729.580453,831.609828 2729.497151,842.655450"/>
    <poly id="102159505" type="building.yes" color="255,230,230" fill="1" layer="-1.00" shape="2682.638573,941.618611 2687.473969,941.655056 2687.518020,935.810635 2682.682621,935.774190 2682.638573,941.618611"/>
    <poly id="102159506" type="building.yes" color="255,230,230" fill="1" layer="-1.00" shape="2669.027992,955.845113 2673.772898,955.781053 2673.709062,950.933974 2668.964154,950.998034 2669.027992,955.845113"/>
    <poly id="102159507" type="building.yes" color="255,230,230" fill="1" layer="-1.00" shape="2692.024362,847.563327 2700.389425,847.781651 2700.822935,831.426267 2692.457858,831.207942 2692.024362,847.563327"/>
    <poly id="102159508" type="building.yes" color="255,230,230" fill="1" layer="-1.00" shape="2760.002075,842.209031 2764.845726,842.367575 2765.245797,830.459275 2760.393016,830.300662 2760.002075,842.209031"/>
    <poly id="102159509" type="building.yes" color="255,230,230" fill="1" layer="-1.00" shape="2713.568939,963.356479 2718.285217,963.458585 2718.584193,950.429368 2713.867907,950.327262 2713.568939,963.356479"/>
    <poly id="102159510" type="building.yes" color="255,230,230" fill="1" layer="-1.00" shape="2789.291638,863.768410 2789.071171,859.130869 2792.283973,858.977671 2792.165454,856.547932 2799.759282,856.194905 2800.098344,863.251096 2789.291638,863.768410"/>
    <poly id="102159511" type="building.yes" color="255,230,230" fill="1" layer="-1.00" shape="2723.021516,939.128222 2727.135998,939.181433 2727.240830,931.330068 2723.135551,931.265837 2723.021516,939.128222"/>
    <poly id="102159512" type="building.yes" color="255,230,230" fill="1" layer="-1.00" shape="2751.307048,941.360065 2751.345450,936.269762 2763.433948,936.360969 2763.395538,941.451272 2751.307048,941.360065"/>
    <poly id="102159513" type="building.yes" color="255,230,230" fill="1" layer="-1.00" shape="2793.717405,890.275116 2793.723338,897.949867 2806.816218,897.948897 2806.810296,890.274146 2793.717405,890.275116"/>
    <poly id="102159514" type="building.yes" color="255,230,230" fill="1" layer="-1.00" shape="2739.029667,965.101180 2742.978996,965.275148 2743.363566,956.627370 2739.423356,956.453470 2739.029667,965.101180"/>
    <poly id="102159515" type="building.yes" color="255,230,230" fill="1" layer="-1.00" shape="2721.767631,905.769291 2721.794598,908.242701 2726.904300,908.203601 2726.886457,905.730259 2721.767631,905.769291"/>
    <poly id="102159516" type="building.yes" color="255,230,230" fill="1" layer="-1.00" shape="2813.561744,885.478525 2813.519706,891.045696 2820.581249,891.099021 2820.623291,885.531849 2813.561744,885.478525"/>
    <poly id="102159517" type="amenity.parking" color="184,184,179" fill="1" layer="-1.00" shape="2693.650092,881.235588 2725.268862,880.675455 2725.101151,871.457891 2706.157256,871.791947 2705.997561,862.718622 2690.612470,862.990816 2690.493040,855.836471 2687.846731,855.883069 2688.063813,868.239647 2693.420288,868.146934 2693.650092,881.235588"/>
    <poly id="102159518" type="building.yes" color="255,230,230" fill="1" layer="-1.00" shape="2693.509653,899.866759 2697.842864,899.954876 2698.044829,890.107934 2693.711613,890.019817 2693.509653,899.866759"/>
    <poly id="102159519" type="building.yes" color="255,230,230" fill="1" layer="-1.00" shape="2700.499972,939.623848 2700.538577,941.764627 2703.951309,941.712721 2703.912705,939.571942 2700.499972,939.623848"/>
    <poly id="102159520" type="building.yes" color="255,230,230" fill="1" layer="-1.00" shape="2727.659934,862.449429 2727.622800,867.373381 2735.733559,867.434552 2735.770697,862.510600 2727.659934,862.449429"/>
    <poly id="102159521" type="building.yes" color="255,230,230" fill="1" layer="-1.00" shape="2697.158239,914.522780 2696.967288,920.488090 2688.721231,920.226302 2688.912176,914.260992 2697.158239,914.522780"/>
    <poly id="102159522" type="building.yes" color="255,230,230" fill="1" layer="-1.00" shape="2667.038718,878.384379 2667.144948,872.762240 2676.377133,872.931624 2676.270898,878.553763 2667.038718,878.384379"/>
    <poly id="102159523" type="building.yes" color="255,230,230" fill="1" layer="-1.00" shape="2747.958186,896.661806 2747.957032,901.652573 2760.620937,901.670482 2760.622181,896.668624 2747.958186,896.661806"/>
    <poly id="102159524" type="building.yes" color="255,230,230" fill="1" layer="-1.00" shape="2656.607519,902.938035 2656.569003,908.050517 2674.593609,907.409986 2674.589374,903.128978 2656.607519,902.938035"/>
    <poly id="102159525" type="building.yes" color="255,230,230" fill="1" layer="-1.00" shape="2705.772464,961.556469 2705.910514,965.028872 2709.323907,964.888248 2709.185774,961.426935 2705.772464,961.556469"/>
    <poly id="102159526" type="building.yes" color="255,230,230" fill="1" layer="-1.00" shape="2750.092609,860.455963 2750.142388,853.857424 2764.165171,853.963222 2764.115382,860.561761 2750.092609,860.455963"/>
    <poly id="102159527" type="building.yes" color="255,230,230" fill="1" layer="-1.00" shape="2743.261141,880.700252 2743.273339,875.454484 2764.349357,875.502584 2764.337147,880.748352 2743.261141,880.700252"/>
    <poly id="102159528" type="building.yes" color="255,230,230" fill="1" layer="-1.00" shape="2675.158829,964.375632 2680.869470,964.496303 2681.191209,948.439520 2675.480558,948.318849 2675.158829,964.375632"/>
    <poly id="102159529" type="building.yes" color="255,230,230" fill="1" layer="-1.00" shape="2680.130220,865.251932 2680.362390,856.237015 2686.793519,856.407480 2686.561426,865.411308 2680.130220,865.251932"/>
    <poly id="102159530" type="building.yes" color="255,230,230" fill="1" layer="-1.00" shape="2726.801521,895.215717 2722.020842,895.179665 2722.070768,888.558945 2726.851451,888.594998 2726.801521,895.215717"/>
    <poly id="102159531" type="building.yes" color="255,230,230" fill="1" layer="-1.00" shape="2776.181717,863.602919 2776.063777,856.260042 2787.689093,856.081609 2787.797900,863.424417 2776.181717,863.602919"/>
    <poly id="102159532" type="building.yes" color="255,230,230" fill="1" layer="-1.00" shape="2744.802441,907.395895 2744.799578,902.937447 2753.969292,902.917898 2753.981190,907.387506 2744.802441,907.395895"/>
    <poly id="102159533" type="building.yes" color="255,230,230" fill="1" layer="-1.00" shape="2714.006575,889.585017 2713.950550,897.015306 2721.422641,897.071649 2721.478672,889.641361 2714.006575,889.585017"/>
    <poly id="102159534" type="building.yes" color="255,230,230" fill="1" layer="-1.00" shape="2671.731356,927.639875 2676.255561,927.807056 2676.575285,919.280784 2672.060200,919.113672 2671.731356,927.639875"/>
    <poly id="102159535" type="building.yes" color="255,230,230" fill="1" layer="-1.00" shape="2759.950101,914.397446 2764.101255,914.428768 2764.143933,908.772877 2759.992776,908.741555 2759.950101,914.397446"/>
    <poly id="102159536" type="building.yes" color="255,230,230" fill="1" layer="-1.00" shape="2801.805818,917.463824 2806.020332,917.562187 2806.199555,910.742811 2801.985121,910.633358 2801.805818,917.463824"/>
    <poly id="102159537" type="building.yes" color="255,230,230" fill="1" layer="-1.00" shape="2791.257653,910.330562 2791.300336,914.345687 2795.680162,914.301115 2795.637481,910.285990 2791.257653,910.330562"/>
    <poly id="102159538" type="building.yes" color="255,230,230" fill="1" layer="-1.00" shape="2707.920161,911.465269 2714.908197,911.584502 2715.054863,903.023654 2708.066820,902.904422 2707.920161,911.465269"/>
    <poly id="102159539" type="building.yes" color="255,230,230" fill="1" layer="-1.00" shape="2687.833499,961.742866 2691.337624,961.669463 2691.275325,959.040518 2694.569614,958.965535 2694.371162,950.191364 2687.581863,950.339819 2687.833499,961.742866"/>
    <poly id="102159540" type="building.yes" color="255,230,230" fill="1" layer="-1.00" shape="2672.034724,888.592116 2671.994779,893.893128 2680.871881,893.960025 2680.911832,888.659014 2672.034724,888.592116"/>
    <poly id="102159541" type="building.yes" color="255,230,230" fill="1" layer="-1.00" shape="2737.625784,847.607717 2737.610495,853.263815 2762.463767,853.329309 2762.479156,847.662122 2737.625784,847.607717"/>
    <poly id="102159542" type="building.yes" color="255,230,230" fill="1" layer="-1.00" shape="2694.898713,912.886518 2700.216077,913.137323 2700.604464,905.188282 2695.277972,904.937407 2694.898713,912.886518"/>
    <poly id="102159543" type="building.yes" color="255,230,230" fill="1" layer="-1.00" shape="2682.384578,960.792367 2686.837033,960.792653 2686.826533,948.870165 2682.373989,948.880969 2682.384578,960.792367"/>
    <poly id="102159544" type="building.yes" color="255,230,230" fill="1" layer="-1.00" shape="2680.655948,880.239311 2680.709070,885.297030 2692.790015,885.188454 2692.746023,880.130803 2680.655948,880.239311"/>
    <poly id="102159546" type="building.yes" color="255,230,230" fill="1" layer="-1.00" shape="2709.513637,865.905955 2724.128673,866.115973 2724.394477,847.807376 2709.779411,847.597358 2709.513637,865.905955"/>
    <poly id="102159547" type="building.yes" color="255,230,230" fill="1" layer="-1.00" shape="2739.167054,880.358833 2742.332891,880.382713 2742.353136,877.698937 2739.187297,877.675057 2739.167054,880.358833"/>