<?xml version="1.0" encoding="UTF-8"?>

<!-- generated on Fri Jul 17 16:03:45 2020 by Eclipse SUMO netconvert Version 1.6.0
<configuration xmlns:xsi="http://www.w3.org/2001/XMLSchema-instance" xsi:noNamespaceSchemaLocation="http://sumo.dlr.de/xsd/netconvertConfiguration.xsd">

    <input>
        <type-files value="/usr/share/sumo/data/typemap/osmNetconvert.typ.xml"/>
        <osm-files value="osm_bbox.osm.xml"/>
    </input>

    <output>
        <output-file value="osm.net.xml"/>
        <output.street-names value="true"/>
        <output.original-names value="true"/>
    </output>

    <projection>
        <proj.utm value="true"/>
    </projection>

    <processing>
        <geometry.remove value="true"/>
        <roundabouts.guess value="true"/>
        <lefthand value="true"/>
    </processing>

    <tls_building>
        <tls.discard-simple value="true"/>
        <tls.join value="true"/>
        <tls.guess-signals value="true"/>
        <tls.default-type value="actuated"/>
    </tls_building>

    <ramp_guessing>
        <ramps.guess value="true"/>
    </ramp_guessing>

    <junctions>
        <junctions.join value="true"/>
        <junctions.corner-detail value="5"/>
    </junctions>

    <report>
        <verbose value="true"/>
        <aggregate-warnings value="5"/>
    </report>

</configuration>
-->

<net version="1.6" junctionCornerDetail="5" lefthand="true" limitTurnSpeed="5.50" xmlns:xsi="http://www.w3.org/2001/XMLSchema-instance" xsi:noNamespaceSchemaLocation="http://sumo.dlr.de/xsd/net_file.xsd">

    <location netOffset="-565967.04,-3874406.22" convBoundary="0.00,-0.00,4035.28,2667.09" origBoundary="135.723075,35.010026,135.767278,35.034042" projParameter="+proj=utm +zone=53 +ellps=WGS84 +datum=WGS84 +units=m +no_defs"/>

    <type id="highway.bridleway" priority="1" numLanes="1" speed="2.78" allow="pedestrian" oneway="1" width="2.00"/>
    <type id="highway.bus_guideway" priority="1" numLanes="1" speed="27.78" allow="bus" oneway="1"/>
    <type id="highway.cycleway" priority="1" numLanes="1" speed="8.33" allow="bicycle" oneway="0" width="1.00"/>
    <type id="highway.footway" priority="1" numLanes="1" speed="2.78" allow="pedestrian" oneway="1" width="2.00"/>
    <type id="highway.ford" priority="1" numLanes="1" speed="2.78" allow="army" oneway="0"/>
    <type id="highway.living_street" priority="2" numLanes="1" speed="2.78" disallow="tram rail_urban rail rail_electric rail_fast ship" oneway="0"/>
    <type id="highway.motorway" priority="14" numLanes="2" speed="39.44" allow="private emergency authority army vip passenger hov taxi bus coach delivery truck trailer motorcycle evehicle custom1 custom2" oneway="1"/>
    <type id="highway.motorway_link" priority="9" numLanes="1" speed="22.22" allow="private emergency authority army vip passenger hov taxi bus coach delivery truck trailer motorcycle evehicle custom1 custom2" oneway="1"/>
    <type id="highway.path" priority="1" numLanes="1" speed="2.78" allow="pedestrian bicycle" oneway="1" width="2.00"/>
    <type id="highway.pedestrian" priority="1" numLanes="1" speed="2.78" allow="pedestrian" oneway="1" width="2.00"/>
    <type id="highway.primary" priority="12" numLanes="2" speed="27.78" disallow="tram rail_urban rail rail_electric rail_fast ship" oneway="0"/>
    <type id="highway.primary_link" priority="7" numLanes="1" speed="22.22" disallow="tram rail_urban rail rail_electric rail_fast ship" oneway="0"/>
    <type id="highway.raceway" priority="15" numLanes="2" speed="83.33" allow="vip" oneway="0"/>
    <type id="highway.residential" priority="3" numLanes="1" speed="13.89" disallow="tram rail_urban rail rail_electric rail_fast ship" oneway="0"/>
    <type id="highway.secondary" priority="11" numLanes="1" speed="27.78" disallow="tram rail_urban rail rail_electric rail_fast ship" oneway="0"/>
    <type id="highway.secondary_link" priority="6" numLanes="1" speed="22.22" disallow="tram rail_urban rail rail_electric rail_fast ship" oneway="0"/>
    <type id="highway.service" priority="1" numLanes="1" speed="5.56" allow="pedestrian delivery bicycle" oneway="0"/>
    <type id="highway.stairs" priority="1" numLanes="1" speed="1.39" allow="pedestrian" oneway="1" width="2.00"/>
    <type id="highway.step" priority="1" numLanes="1" speed="1.39" allow="pedestrian" oneway="1" width="2.00"/>
    <type id="highway.steps" priority="1" numLanes="1" speed="1.39" allow="pedestrian" oneway="1" width="2.00"/>
    <type id="highway.tertiary" priority="10" numLanes="1" speed="22.22" disallow="tram rail_urban rail rail_electric rail_fast ship" oneway="0"/>
    <type id="highway.tertiary_link" priority="5" numLanes="1" speed="22.22" disallow="tram rail_urban rail rail_electric rail_fast ship" oneway="0"/>
    <type id="highway.track" priority="1" numLanes="1" speed="5.56" disallow="tram rail_urban rail rail_electric rail_fast ship" oneway="0"/>
    <type id="highway.trunk" priority="13" numLanes="2" speed="27.78" disallow="pedestrian bicycle tram rail_urban rail rail_electric rail_fast ship" oneway="0"/>
    <type id="highway.trunk_link" priority="8" numLanes="1" speed="22.22" disallow="pedestrian bicycle tram rail_urban rail rail_electric rail_fast ship" oneway="0"/>
    <type id="highway.unclassified" priority="4" numLanes="1" speed="13.89" disallow="tram rail_urban rail rail_electric rail_fast ship" oneway="0"/>
    <type id="highway.unsurfaced" priority="1" numLanes="1" speed="8.33" disallow="tram rail_urban rail rail_electric rail_fast ship" oneway="0"/>
    <type id="railway.highspeed" priority="21" numLanes="1" speed="69.44" allow="rail_fast" oneway="1"/>
    <type id="railway.light_rail" priority="19" numLanes="1" speed="27.78" allow="rail_urban" oneway="1"/>
    <type id="railway.preserved" priority="16" numLanes="1" speed="27.78" allow="rail" oneway="1"/>
    <type id="railway.rail" priority="20" numLanes="1" speed="44.44" allow="rail" oneway="1"/>
    <type id="railway.subway" priority="18" numLanes="1" speed="27.78" allow="rail_urban" oneway="1"/>
    <type id="railway.tram" priority="17" numLanes="1" speed="13.89" allow="tram" oneway="1"/>

    <edge id=":1015609274_0" function="internal">
        <lane id=":1015609274_0_0" index="0" disallow="tram rail_urban rail rail_electric rail_fast ship" speed="3.65" length="4.67" shape="2442.39,2054.59 2443.24,2055.75 2444.06,2056.11 2444.84,2055.68 2445.58,2054.44"/>
    </edge>
    <edge id=":1015609284_0" function="internal">
        <lane id=":1015609284_0_0" index="0" disallow="tram rail_urban rail rail_electric rail_fast ship" speed="6.56" length="9.14" shape="2396.13,1656.00 2395.77,1658.46 2394.70,1660.23 2392.92,1661.30 2390.44,1661.66"/>
    </edge>
    <edge id=":1015609284_1" function="internal">
        <lane id=":1015609284_1_0" index="0" disallow="tram rail_urban rail rail_electric rail_fast ship" speed="13.89" length="14.46" shape="2396.13,1656.00 2396.02,1670.46"/>
    </edge>
    <edge id=":1015609284_2" function="internal">
        <lane id=":1015609284_2_0" index="0" disallow="tram rail_urban rail rail_electric rail_fast ship" speed="7.99" length="14.22" shape="2396.13,1656.00 2396.67,1659.86 2398.31,1662.61 2401.07,1664.26 2404.93,1664.81"/>
    </edge>
    <edge id=":1015609284_3" function="internal">
        <lane id=":1015609284_3_0" index="0" disallow="tram rail_urban rail rail_electric rail_fast ship" speed="3.65" length="4.67" shape="2396.13,1656.00 2396.93,1657.20 2397.73,1657.60 2398.53,1657.21 2399.33,1656.01"/>
    </edge>
    <edge id=":1015609284_4" function="internal">
        <lane id=":1015609284_4_0" index="0" disallow="tram rail_urban rail rail_electric rail_fast ship" speed="6.49" length="9.03" shape="2404.92,1661.61 2402.47,1661.26 2400.72,1660.21 2399.67,1658.46 2399.33,1656.01"/>
    </edge>
    <edge id=":1015609284_5" function="internal">
        <lane id=":1015609284_5_0" index="0" disallow="tram rail_urban rail rail_electric rail_fast ship" speed="11.11" length="14.48" shape="2404.92,1661.61 2390.44,1661.66"/>
    </edge>
    <edge id=":1015609284_6" function="internal">
        <lane id=":1015609284_6_0" index="0" disallow="tram rail_urban rail rail_electric rail_fast ship" speed="8.05" length="5.99" shape="2404.92,1661.61 2401.03,1662.17 2399.26,1663.23"/>
    </edge>
    <edge id=":1015609284_7" function="internal">
        <lane id=":1015609284_7_0" index="0" disallow="tram rail_urban rail rail_electric rail_fast ship" speed="3.65" length="2.34" shape="2404.92,1661.61 2403.72,1662.41 2403.32,1663.21"/>
    </edge>
    <edge id=":1015609284_16" function="internal">
        <lane id=":1015609284_16_0" index="0" disallow="tram rail_urban rail rail_electric rail_fast ship" speed="8.05" length="8.31" shape="2399.26,1663.23 2398.26,1663.83 2396.58,1666.59 2396.02,1670.46"/>
    </edge>
    <edge id=":1015609284_17" function="internal">
        <lane id=":1015609284_17_0" index="0" disallow="tram rail_urban rail rail_electric rail_fast ship" speed="3.65" length="2.34" shape="2403.32,1663.21 2403.73,1664.01 2404.93,1664.81"/>
    </edge>
    <edge id=":1015609284_8" function="internal">
        <lane id=":1015609284_8_0" index="0" disallow="tram rail_urban rail rail_electric rail_fast ship" speed="6.57" length="9.19" shape="2399.22,1670.50 2399.58,1668.01 2400.65,1666.24 2402.44,1665.17 2404.93,1664.81"/>
    </edge>
    <edge id=":1015609284_9" function="internal">
        <lane id=":1015609284_9_0" index="0" disallow="tram rail_urban rail rail_electric rail_fast ship" speed="13.89" length="14.49" shape="2399.22,1670.50 2399.33,1656.01"/>
    </edge>
    <edge id=":1015609284_10" function="internal">
        <lane id=":1015609284_10_0" index="0" disallow="tram rail_urban rail rail_electric rail_fast ship" speed="7.99" length="14.23" shape="2399.22,1670.50 2398.68,1666.62 2397.03,1663.85 2394.29,1662.20 2390.44,1661.66"/>
    </edge>
    <edge id=":1015609284_11" function="internal">
        <lane id=":1015609284_11_0" index="0" disallow="tram rail_urban rail rail_electric rail_fast ship" speed="3.65" length="4.67" shape="2399.22,1670.50 2398.43,1669.29 2397.64,1668.88 2396.83,1669.27 2396.02,1670.46"/>
    </edge>
    <edge id=":1015609284_12" function="internal">
        <lane id=":1015609284_12_0" index="0" disallow="tram rail_urban rail rail_electric rail_fast ship" speed="6.48" length="9.02" shape="2390.45,1664.86 2392.89,1665.20 2394.63,1666.25 2395.67,1668.00 2396.02,1670.46"/>
    </edge>
    <edge id=":1015609284_13" function="internal">
        <lane id=":1015609284_13_0" index="0" disallow="tram rail_urban rail rail_electric rail_fast ship" speed="11.11" length="14.47" shape="2390.45,1664.86 2404.93,1664.81"/>
    </edge>
    <edge id=":1015609284_14" function="internal">
        <lane id=":1015609284_14_0" index="0" disallow="tram rail_urban rail rail_electric rail_fast ship" speed="8.05" length="5.95" shape="2390.45,1664.86 2394.33,1664.29 2396.07,1663.24"/>
    </edge>
    <edge id=":1015609284_15" function="internal">
        <lane id=":1015609284_15_0" index="0" disallow="tram rail_urban rail rail_electric rail_fast ship" speed="3.65" length="2.34" shape="2390.45,1664.86 2391.65,1664.06 2392.05,1663.25"/>
    </edge>
    <edge id=":1015609284_18" function="internal">
        <lane id=":1015609284_18_0" index="0" disallow="tram rail_urban rail rail_electric rail_fast ship" speed="8.05" length="8.32" shape="2396.07,1663.24 2397.10,1662.62 2398.76,1659.86 2399.33,1656.01"/>
    </edge>
    <edge id=":1015609284_19" function="internal">
        <lane id=":1015609284_19_0" index="0" disallow="tram rail_urban rail rail_electric rail_fast ship" speed="3.65" length="2.34" shape="2392.05,1663.25 2391.64,1662.46 2390.44,1661.66"/>
    </edge>
    <edge id=":1015609328_0" function="internal">
        <lane id=":1015609328_0_0" index="0" disallow="tram rail_urban rail rail_electric rail_fast ship" speed="6.64" length="9.25" shape="2364.40,1661.80 2361.93,1661.45 2360.13,1660.38 2359.02,1658.59 2358.58,1656.07"/>
    </edge>
    <edge id=":1015609328_1" function="internal">
        <lane id=":1015609328_1_0" index="0" disallow="tram rail_urban rail rail_electric rail_fast ship" speed="11.11" length="14.48" shape="2364.40,1661.80 2349.92,1661.83"/>
    </edge>
    <edge id=":1015609328_2" function="internal">
        <lane id=":1015609328_2_0" index="0" disallow="tram rail_urban rail rail_electric rail_fast ship" speed="8.02" length="5.88" shape="2364.40,1661.80 2360.56,1662.37 2358.85,1663.41"/>
    </edge>
    <edge id=":1015609328_3" function="internal">
        <lane id=":1015609328_3_0" index="0" disallow="tram rail_urban rail rail_electric rail_fast ship" speed="3.65" length="2.34" shape="2364.40,1661.80 2363.20,1662.61 2362.81,1663.41"/>
    </edge>
    <edge id=":1015609328_16" function="internal">
        <lane id=":1015609328_16_0" index="0" disallow="tram rail_urban rail rail_electric rail_fast ship" speed="8.02" length="8.30" shape="2358.85,1663.41 2357.82,1664.03 2356.17,1666.79 2355.61,1670.64"/>
    </edge>
    <edge id=":1015609328_17" function="internal">
        <lane id=":1015609328_17_0" index="0" disallow="tram rail_urban rail rail_electric rail_fast ship" speed="3.65" length="2.34" shape="2362.81,1663.41 2363.21,1664.21 2364.41,1665.00"/>
    </edge>
    <edge id=":1015609328_4" function="internal">
        <lane id=":1015609328_4_0" index="0" disallow="tram rail_urban rail rail_electric rail_fast ship" speed="6.53" length="9.06" shape="2358.81,1670.65 2359.17,1668.19 2360.22,1666.43 2361.97,1665.37 2364.41,1665.00"/>
    </edge>
    <edge id=":1015609328_5" function="internal">
        <lane id=":1015609328_5_0" index="0" disallow="tram rail_urban rail rail_electric rail_fast ship" speed="13.89" length="14.58" shape="2358.81,1670.65 2358.58,1656.07"/>
    </edge>
    <edge id=":1015609328_6" function="internal">
        <lane id=":1015609328_6_0" index="0" disallow="tram rail_urban rail rail_electric rail_fast ship" speed="8.02" length="6.11" shape="2358.81,1670.65 2358.26,1666.80 2357.12,1664.90"/>
    </edge>
    <edge id=":1015609328_7" function="internal">
        <lane id=":1015609328_7_0" index="0" disallow="tram rail_urban rail rail_electric rail_fast ship" speed="3.65" length="2.34" shape="2358.81,1670.65 2358.01,1669.45 2357.22,1669.04"/>
    </edge>
    <edge id=":1015609328_18" function="internal">
        <lane id=":1015609328_18_0" index="0" disallow="tram rail_urban rail rail_electric rail_fast ship" speed="8.02" length="8.18" shape="2357.12,1664.90 2356.60,1664.04 2353.82,1662.38 2349.92,1661.83"/>
    </edge>
    <edge id=":1015609328_19" function="internal">
        <lane id=":1015609328_19_0" index="0" disallow="tram rail_urban rail rail_electric rail_fast ship" speed="3.65" length="2.34" shape="2357.22,1669.04 2356.41,1669.44 2355.61,1670.64"/>
    </edge>
    <edge id=":1015609328_8" function="internal">
        <lane id=":1015609328_8_0" index="0" disallow="tram rail_urban rail rail_electric rail_fast ship" speed="6.53" length="9.12" shape="2349.91,1665.03 2352.41,1665.38 2354.19,1666.43 2355.26,1668.19 2355.61,1670.64"/>
    </edge>
    <edge id=":1015609328_9" function="internal">
        <lane id=":1015609328_9_0" index="0" disallow="tram rail_urban rail rail_electric rail_fast ship" speed="11.11" length="14.50" shape="2349.91,1665.03 2364.41,1665.00"/>
    </edge>
    <edge id=":1015609328_10" function="internal">
        <lane id=":1015609328_10_0" index="0" disallow="tram rail_urban rail rail_electric rail_fast ship" speed="7.94" length="5.97" shape="2349.91,1665.03 2353.82,1664.47 2355.55,1663.42"/>
    </edge>
    <edge id=":1015609328_11" function="internal">
        <lane id=":1015609328_11_0" index="0" disallow="tram rail_urban rail rail_electric rail_fast ship" speed="3.65" length="2.34" shape="2349.91,1665.03 2351.11,1664.23 2351.51,1663.43"/>
    </edge>
    <edge id=":1015609328_20" function="internal">
        <lane id=":1015609328_20_0" index="0" disallow="tram rail_urban rail rail_electric rail_fast ship" speed="7.94" length="8.36" shape="2355.55,1663.42 2356.57,1662.80 2358.15,1660.00 2358.58,1656.07"/>
    </edge>
    <edge id=":1015609328_21" function="internal">
        <lane id=":1015609328_21_0" index="0" disallow="tram rail_urban rail rail_electric rail_fast ship" speed="3.65" length="2.34" shape="2351.51,1663.43 2351.12,1662.63 2349.92,1661.83"/>
    </edge>
    <edge id=":1015609328_12" function="internal">
        <lane id=":1015609328_12_0" index="0" disallow="tram rail_urban rail rail_electric rail_fast ship" speed="6.43" length="9.03" shape="2355.38,1656.18 2355.11,1658.66 2354.11,1660.42 2352.38,1661.48 2349.92,1661.83"/>
    </edge>
    <edge id=":1015609328_13" function="internal">
        <lane id=":1015609328_13_0" index="0" disallow="tram rail_urban rail rail_electric rail_fast ship" speed="13.89" length="14.46" shape="2355.38,1656.18 2355.61,1670.64"/>
    </edge>
    <edge id=":1015609328_14" function="internal">
        <lane id=":1015609328_14_0" index="0" disallow="tram rail_urban rail rail_electric rail_fast ship" speed="8.12" length="5.83" shape="2355.38,1656.18 2356.06,1660.06 2357.07,1661.66"/>
    </edge>
    <edge id=":1015609328_15" function="internal">
        <lane id=":1015609328_15_0" index="0" disallow="tram rail_urban rail rail_electric rail_fast ship" speed="3.65" length="2.34" shape="2355.38,1656.18 2356.22,1657.35 2357.04,1657.73"/>
    </edge>
    <edge id=":1015609328_22" function="internal">
        <lane id=":1015609328_22_0" index="0" disallow="tram rail_urban rail rail_electric rail_fast ship" speed="8.12" length="8.47" shape="2357.07,1661.66 2357.79,1662.82 2360.58,1664.47 2364.41,1665.00"/>
    </edge>
    <edge id=":1015609328_23" function="internal">
        <lane id=":1015609328_23_0" index="0" disallow="tram rail_urban rail rail_electric rail_fast ship" speed="3.65" length="2.34" shape="2357.04,1657.73 2357.82,1657.30 2358.58,1656.07"/>
    </edge>
    <edge id=":1015609351_0" function="internal">
        <lane id=":1015609351_0_0" index="0" disallow="tram rail_urban rail rail_electric rail_fast ship" speed="6.80" length="9.38" shape="2286.47,1812.69 2285.93,1815.26 2284.76,1817.10 2282.96,1818.21 2280.53,1818.58"/>
    </edge>
    <edge id=":1015609351_1" function="internal">
        <lane id=":1015609351_1_0" index="0" disallow="tram rail_urban rail rail_electric rail_fast ship" speed="3.65" length="2.56" shape="2286.47,1812.69 2287.18,1813.95 2287.94,1814.41 2288.15,1814.32"/>
    </edge>
    <edge id=":1015609351_4" function="internal">
        <lane id=":1015609351_4_0" index="0" disallow="tram rail_urban rail rail_electric rail_fast ship" speed="3.65" length="2.11" shape="2288.15,1814.32 2288.77,1814.07 2289.66,1812.94"/>
    </edge>
    <edge id=":1015609351_2" function="internal">
        <lane id=":1015609351_2_0" index="0" disallow="tram rail_urban rail rail_electric rail_fast ship" speed="6.39" length="9.04" shape="2294.91,1818.74 2292.45,1818.33 2290.75,1817.22 2289.83,1815.43 2289.66,1812.94"/>
    </edge>
    <edge id=":1015609351_3" function="internal">
        <lane id=":1015609351_3_0" index="0" disallow="tram rail_urban rail rail_electric rail_fast ship" speed="13.89" length="14.38" shape="2294.91,1818.74 2280.53,1818.58"/>
    </edge>
    <edge id=":1015609352_0" function="internal">
        <lane id=":1015609352_0_0" index="0" disallow="tram rail_urban rail rail_electric rail_fast ship" speed="6.41" length="9.04" shape="2504.70,1815.57 2504.32,1818.04 2503.24,1819.75 2501.46,1820.72 2498.98,1820.94"/>
    </edge>
    <edge id=":1015609352_1" function="internal">
        <lane id=":1015609352_1_0" index="0" disallow="tram rail_urban rail rail_electric rail_fast ship" speed="13.89" length="11.26" shape="2504.70,1815.57 2504.48,1826.83"/>
    </edge>
    <edge id=":1015609352_2" function="internal">
        <lane id=":1015609352_2_0" index="0" disallow="tram rail_urban rail rail_electric rail_fast ship" speed="13.89" length="11.26" shape="2510.23,1821.36 2498.98,1820.94"/>
    </edge>
    <edge id=":1015609352_3" function="internal">
        <lane id=":1015609352_3_0" index="0" disallow="tram rail_urban rail rail_electric rail_fast ship" speed="6.53" length="4.32" shape="2510.23,1821.36 2507.78,1821.66 2506.17,1822.58"/>
    </edge>
    <edge id=":1015609352_4" function="internal">
        <lane id=":1015609352_4_0" index="0" disallow="tram rail_urban rail rail_electric rail_fast ship" speed="6.53" length="4.71" shape="2506.17,1822.58 2506.00,1822.67 2504.90,1824.39 2504.48,1826.83"/>
    </edge>
    <edge id=":1015609369_0" function="internal">
        <lane id=":1015609369_0_0" index="0" disallow="tram rail_urban rail rail_electric rail_fast ship" speed="6.60" length="9.13" shape="2395.39,1812.87 2394.98,1815.36 2393.89,1817.14 2392.12,1818.20 2389.68,1818.55"/>
    </edge>
    <edge id=":1015609369_1" function="internal">
        <lane id=":1015609369_1_0" index="0" disallow="tram rail_urban rail rail_electric rail_fast ship" speed="3.65" length="2.56" shape="2395.39,1812.87 2396.16,1814.09 2396.95,1814.52 2397.15,1814.42"/>
    </edge>
    <edge id=":1015609369_4" function="internal">
        <lane id=":1015609369_4_0" index="0" disallow="tram rail_urban rail rail_electric rail_fast ship" speed="3.65" length="2.11" shape="2397.15,1814.42 2397.76,1814.14 2398.59,1812.96"/>
    </edge>
    <edge id=":1015609369_2" function="internal">
        <lane id=":1015609369_2_0" index="0" disallow="tram rail_urban rail rail_electric rail_fast ship" speed="6.50" length="9.06" shape="2404.08,1818.68 2401.62,1818.28 2399.89,1817.19 2398.88,1815.42 2398.59,1812.96"/>
    </edge>
    <edge id=":1015609369_3" function="internal">
        <lane id=":1015609369_3_0" index="0" disallow="tram rail_urban rail rail_electric rail_fast ship" speed="13.89" length="14.40" shape="2404.08,1818.68 2389.68,1818.55"/>
    </edge>
    <edge id=":1015609372_0" function="internal">
        <lane id=":1015609372_0_0" index="0" disallow="tram rail_urban rail rail_electric rail_fast ship" speed="6.51" length="9.03" shape="2434.58,1655.94 2434.24,1658.39 2433.19,1660.14 2431.44,1661.20 2428.99,1661.55"/>
    </edge>
    <edge id=":1015609372_1" function="internal">
        <lane id=":1015609372_1_0" index="0" disallow="tram rail_urban rail rail_electric rail_fast ship" speed="13.89" length="14.43" shape="2434.58,1655.94 2434.65,1670.37"/>
    </edge>
    <edge id=":1015609372_2" function="internal">
        <lane id=":1015609372_2_0" index="0" disallow="tram rail_urban rail rail_electric rail_fast ship" speed="8.01" length="14.21" shape="2434.58,1655.94 2435.14,1659.79 2436.80,1662.53 2439.56,1664.18 2443.42,1664.73"/>
    </edge>
    <edge id=":1015609372_3" function="internal">
        <lane id=":1015609372_3_0" index="0" disallow="tram rail_urban rail rail_electric rail_fast ship" speed="3.65" length="4.67" shape="2434.58,1655.94 2435.39,1657.14 2436.19,1657.54 2436.99,1657.13 2437.78,1655.93"/>
    </edge>
    <edge id=":1015609372_4" function="internal">
        <lane id=":1015609372_4_0" index="0" disallow="tram rail_urban rail rail_electric rail_fast ship" speed="6.51" length="9.05" shape="2443.41,1661.53 2440.95,1661.18 2439.20,1660.13 2438.14,1658.38 2437.78,1655.93"/>
    </edge>
    <edge id=":1015609372_5" function="internal">
        <lane id=":1015609372_5_0" index="0" disallow="tram rail_urban rail rail_electric rail_fast ship" speed="11.11" length="14.42" shape="2443.41,1661.53 2428.99,1661.55"/>
    </edge>
    <edge id=":1015609372_6" function="internal">
        <lane id=":1015609372_6_0" index="0" disallow="tram rail_urban rail rail_electric rail_fast ship" speed="7.99" length="5.94" shape="2443.41,1661.53 2439.55,1662.08 2437.81,1663.14"/>
    </edge>
    <edge id=":1015609372_7" function="internal">
        <lane id=":1015609372_7_0" index="0" disallow="tram rail_urban rail rail_electric rail_fast ship" speed="3.65" length="2.34" shape="2443.41,1661.53 2442.21,1662.33 2441.82,1663.13"/>
    </edge>
    <edge id=":1015609372_16" function="internal">
        <lane id=":1015609372_16_0" index="0" disallow="tram rail_urban rail rail_electric rail_fast ship" speed="7.99" length="8.28" shape="2437.81,1663.14 2436.81,1663.74 2435.17,1666.50 2434.65,1670.37"/>
    </edge>
    <edge id=":1015609372_17" function="internal">
        <lane id=":1015609372_17_0" index="0" disallow="tram rail_urban rail rail_electric rail_fast ship" speed="3.65" length="2.34" shape="2441.82,1663.13 2442.22,1663.93 2443.42,1664.73"/>
    </edge>
    <edge id=":1015609372_8" function="internal">
        <lane id=":1015609372_8_0" index="0" disallow="tram rail_urban rail rail_electric rail_fast ship" speed="6.49" length="9.03" shape="2437.85,1670.34 2438.18,1667.89 2439.22,1666.13 2440.97,1665.08 2443.42,1664.73"/>
    </edge>
    <edge id=":1015609372_9" function="internal">
        <lane id=":1015609372_9_0" index="0" disallow="tram rail_urban rail rail_electric rail_fast ship" speed="13.89" length="14.41" shape="2437.85,1670.34 2437.78,1655.93"/>
    </edge>
    <edge id=":1015609372_10" function="internal">
        <lane id=":1015609372_10_0" index="0" disallow="tram rail_urban rail rail_electric rail_fast ship" speed="8.02" length="14.21" shape="2437.85,1670.34 2437.27,1666.49 2435.60,1663.74 2432.84,1662.09 2428.99,1661.55"/>
    </edge>
    <edge id=":1015609372_11" function="internal">
        <lane id=":1015609372_11_0" index="0" disallow="tram rail_urban rail rail_electric rail_fast ship" speed="3.65" length="4.67" shape="2437.85,1670.34 2437.04,1669.15 2436.24,1668.75 2435.44,1669.16 2434.65,1670.37"/>
    </edge>
    <edge id=":1015609372_12" function="internal">
        <lane id=":1015609372_12_0" index="0" disallow="tram rail_urban rail rail_electric rail_fast ship" speed="6.53" length="9.07" shape="2429.00,1664.75 2431.46,1665.10 2433.22,1666.15 2434.28,1667.90 2434.65,1670.37"/>
    </edge>
    <edge id=":1015609372_13" function="internal">
        <lane id=":1015609372_13_0" index="0" disallow="tram rail_urban rail rail_electric rail_fast ship" speed="11.11" length="14.42" shape="2429.00,1664.75 2443.42,1664.73"/>
    </edge>
    <edge id=":1015609372_14" function="internal">
        <lane id=":1015609372_14_0" index="0" disallow="tram rail_urban rail rail_electric rail_fast ship" speed="8.00" length="5.92" shape="2429.00,1664.75 2432.85,1664.19 2434.59,1663.14"/>
    </edge>
    <edge id=":1015609372_15" function="internal">
        <lane id=":1015609372_15_0" index="0" disallow="tram rail_urban rail rail_electric rail_fast ship" speed="3.65" length="2.34" shape="2429.00,1664.75 2430.20,1663.95 2430.60,1663.15"/>
    </edge>
    <edge id=":1015609372_18" function="internal">
        <lane id=":1015609372_18_0" index="0" disallow="tram rail_urban rail rail_electric rail_fast ship" speed="8.00" length="8.27" shape="2434.59,1663.14 2435.60,1662.54 2437.24,1659.78 2437.78,1655.93"/>
    </edge>
    <edge id=":1015609372_19" function="internal">
        <lane id=":1015609372_19_0" index="0" disallow="tram rail_urban rail rail_electric rail_fast ship" speed="3.65" length="2.34" shape="2430.60,1663.15 2430.20,1662.35 2428.99,1661.55"/>
    </edge>
    <edge id=":1015609374_0" function="internal">
        <lane id=":1015609374_0_0" index="0" disallow="tram rail_urban rail rail_electric rail_fast ship" speed="6.62" length="9.40" shape="2355.19,1813.01 2354.83,1815.66 2353.78,1817.55 2352.02,1818.67 2349.57,1819.04"/>
    </edge>
    <edge id=":1015609374_1" function="internal">
        <lane id=":1015609374_1_0" index="0" disallow="tram rail_urban rail rail_electric rail_fast ship" speed="13.89" length="11.66" shape="2355.19,1813.01 2355.16,1824.67"/>
    </edge>
    <edge id=":1015609374_2" function="internal">
        <lane id=":1015609374_2_0" index="0" disallow="tram rail_urban rail rail_electric rail_fast ship" speed="3.65" length="2.34" shape="2355.19,1813.01 2355.99,1814.21 2356.79,1814.61"/>
    </edge>
    <edge id=":1015609374_9" function="internal">
        <lane id=":1015609374_9_0" index="0" disallow="tram rail_urban rail rail_electric rail_fast ship" speed="3.65" length="2.34" shape="2356.79,1814.61 2357.59,1814.21 2358.39,1813.02"/>
    </edge>
    <edge id=":1015609374_3" function="internal">
        <lane id=":1015609374_3_0" index="0" disallow="tram rail_urban rail rail_electric rail_fast ship" speed="6.54" length="9.13" shape="2364.20,1818.53 2361.65,1818.18 2359.84,1817.15 2358.75,1815.43 2358.39,1813.02"/>
    </edge>
    <edge id=":1015609374_4" function="internal">
        <lane id=":1015609374_4_0" index="0" disallow="tram rail_urban rail rail_electric rail_fast ship" speed="13.89" length="14.64" shape="2364.20,1818.53 2349.57,1819.04"/>
    </edge>
    <edge id=":1015609374_5" function="internal">
        <lane id=":1015609374_5_0" index="0" disallow="tram rail_urban rail rail_electric rail_fast ship" speed="7.50" length="12.32" shape="2364.20,1818.53 2360.25,1818.91 2357.43,1820.06 2355.73,1821.98 2355.16,1824.67"/>
    </edge>
    <edge id=":1015609374_6" function="internal">
        <lane id=":1015609374_6_0" index="0" disallow="tram rail_urban rail rail_electric rail_fast ship" speed="13.89" length="11.66" shape="2358.36,1824.68 2358.39,1813.02"/>
    </edge>
    <edge id=":1015609374_7" function="internal">
        <lane id=":1015609374_7_0" index="0" disallow="tram rail_urban rail rail_electric rail_fast ship" speed="7.34" length="4.04" shape="2358.36,1824.68 2357.82,1822.23 2356.77,1821.11"/>
    </edge>
    <edge id=":1015609374_8" function="internal">
        <lane id=":1015609374_8_0" index="0" disallow="tram rail_urban rail rail_electric rail_fast ship" speed="3.65" length="2.34" shape="2358.36,1824.68 2357.56,1823.47 2356.77,1823.07"/>
    </edge>
    <edge id=":1015609374_10" function="internal">