<?xml version="1.0" encoding="UTF-8"?>
<!-- generated on 2020-07-17 17:59:02.732016 by randomTrips.py UNKNOWN
  options: -n osm.net.xml -p 1 -e 1500
-->
<routes xmlns:xsi="http://www.w3.org/2001/XMLSchema-instance" xsi:noNamespaceSchemaLocation="http://sumo.dlr.de/xsd/routes_file.xsd">
    <trip id="0" depart="0.00" from="586187433#1" to="87338878#2"/>
    <trip id="1" depart="1.00" from="-200716195#0" to="-273034619#8"/>
    <trip id="2" depart="2.00" from="91208046#0" to="476097600#12"/>
    <trip id="3" depart="3.00" from="-41204040" to="600354727"/>
    <trip id="4" depart="4.00" from="-586187403#2" to="91667176#0"/>
    <trip id="5" depart="5.00" from="37452623#2" to="-600354720#0"/>
    <trip id="6" depart="6.00" from="273034619#26" to="485965225#0"/>
    <trip id="7" depart="7.00" from="-586187400#6" to="37247674#0"/>
    <trip id="8" depart="8.00" from="41204030#5" to="202640209#3"/>
    <trip id="9" depart="9.00" from="-117340981#0" to="89907137#9"/>
    <trip id="10" depart="10.00" from="258091333#7" to="37452619#1"/>
    <trip id="11" depart="11.00" from="202548522#1" to="-37247674#1"/>
    <trip id="12" depart="12.00" from="91252218#1" to="87338871#17"/>
    <trip id="13" depart="13.00" from="662249674#0" to="586187434#4"/>
    <trip id="14" depart="14.00" from="586187403#0" to="91215109#2"/>
    <trip id="15" depart="15.00" from="91205175#5" to="35868092#1"/>
    <trip id="16" depart="16.00" from="-200716195#0" to="258091333#0"/>
    <trip id="17" depart="17.00" from="89907129#1" to="37452620#0"/>
    <trip id="18" depart="18.00" from="89907127#0" to="600354693#9"/>
    <trip id="19" depart="19.00" from="-91667167" to="-91364317"/>
    <trip id="20" depart="20.00" from="35868089#11" to="37452623#1"/>
    <trip id="21" depart="21.00" from="91208046#1" to="157229645"/>
    <trip id="22" depart="22.00" from="538631660#0" to="30644546#7"/>
    <trip id="23" depart="23.00" from="41204029#1" to="409754577#10"/>
    <trip id="24" depart="24.00" from="28524049#0" to="-89907127#4"/>
    <trip id="25" depart="25.00" from="463048372" to="37452626#3"/>
    <trip id="26" depart="26.00" from="91667176#7" to="91364321#2"/>
    <trip id="27" depart="27.00" from="261875728" to="586187434#7"/>
    <trip id="28" depart="28.00" from="89907124#0" to="-274936039#14"/>
    <trip id="29" depart="29.00" from="273254456#3" to="41204025#0"/>
    <trip id="30" depart="30.00" from="-91667178#5" to="-41204036#1"/>
    <trip id="31" depart="31.00" from="-91667178#2" to="274936039#10"/>
    <trip id="32" depart="32.00" from="-562750755#1" to="-89907136#4"/>
    <trip id="33" depart="33.00" from="274936037#4" to="-91252218#4"/>
    <trip id="34" depart="34.00" from="-273034619#21" to="-548136028#0"/>
    <trip id="35" depart="35.00" from="485965222#0" to="-91667172#0"/>
    <trip id="36" depart="36.00" from="91215912#1" to="-89907124#4"/>
    <trip id="37" depart="37.00" from="89907126" to="-66088108#13"/>
    <trip id="38" depart="38.00" from="409754577#5" to="586187414#1"/>
    <trip id="39" depart="39.00" from="-91364324#2" to="91252226#3"/>
    <trip id="40" depart="40.00" from="273924630#17" to="586187435#2"/>
    <trip id="41" depart="41.00" from="-273254456#3" to="-274936039#13"/>
    <trip id="42" depart="42.00" from="91252227#2" to="-91205172#2"/>
    <trip id="43" depart="43.00" from="-89907124#5" to="218058805"/>
    <trip id="44" depart="44.00" from="91205175#5" to="91667178#1"/>
    <trip id="45" depart="45.00" from="-201096045" to="66088108#13"/>
    <trip id="46" depart="46.00" from="-274936039#3" to="91667165"/>
    <trip id="47" depart="47.00" from="41204036#1" to="91667176#1"/>
    <trip id="48" depart="48.00" from="-66088108#16" to="258091333#0"/>
    <trip id="49" depart="49.00" from="476097600#8" to="35868089#13"/>
    <trip id="50" depart="50.00" from="-30644544#2" to="91205175#5"/>
    <trip id="51" depart="51.00" from="117340984#0" to="41204035"/>
    <trip id="52" depart="52.00" from="-562750764#1" to="-200716196#0"/>
    <trip id="53" depart="53.00" from="41204029#3" to="600354712#1"/>
    <trip id="54" depart="54.00" from="586187418#7" to="91215912#0"/>
    <trip id="55" depart="55.00" from="-273034619#19" to="35868091#4"/>
    <trip id="56" depart="56.00" from="202548530#1" to="66088108#15"/>
    <trip id="57" depart="57.00" from="91667176#8" to="-201086190#0"/>
    <trip id="58" depart="58.00" from="-91364316" to="600354716#2"/>
    <trip id="59" depart="59.00" from="-91364328#1" to="273924630#17"/>
    <trip id="60" depart="60.00" from="28524049#1" to="-91252227#1"/>
    <trip id="61" depart="61.00" from="274936037#6" to="586187418#7"/>
    <trip id="62" depart="62.00" from="91667176#6" to="-273254456#3"/>
    <trip id="63" depart="63.00" from="91252220#1" to="-463048378"/>
    <trip id="64" depart="64.00" from="-91667184#7" to="-586187415"/>
    <trip id="65" depart="65.00" from="-201096053" to="91364317"/>
    <trip id="66" depart="66.00" from="274936037#6" to="-157514980#2"/>
    <trip id="67" depart="67.00" from="89907137#17" to="91208039#3"/>
    <trip id="68" depart="68.00" from="89907128#2" to="89907124#2"/>
    <trip id="69" depart="69.00" from="274936039#14" to="89907292#1"/>
    <trip id="70" depart="70.00" from="-157229821#2" to="87338871#8"/>
    <trip id="71" depart="71.00" from="-91364319#3" to="-91667161#1"/>
    <trip id="72" depart="72.00" from="218058805" to="274936039#13"/>
    <trip id="73" depart="73.00" from="586187418#10" to="117340984#6"/>
    <trip id="74" depart="74.00" from="91252222" to="-202548530#1"/>
    <trip id="75" depart="75.00" from="-41204036#0" to="-91667180#6"/>
    <trip id="76" depart="76.00" from="89907127#5" to="34634618#1"/>
    <trip id="77" depart="77.00" from="559465486" to="201096056"/>
    <trip id="78" depart="78.00" from="41204025#0" to="-586192044#2"/>
    <trip id="79" depart="79.00" from="-202548529" to="586187413#1"/>
    <trip id="80" depart="80.00" from="586187409#2" to="-202548521#0"/>
    <trip id="81" depart="81.00" from="273924630#12" to="91364321#2"/>
    <trip id="82" depart="82.00" from="273034619#13" to="273034619#22"/>
    <trip id="83" depart="83.00" from="35868095#5" to="273924630#5"/>
    <trip id="84" depart="84.00" from="91667176#9" to="-89907127#1"/>
    <trip id="85" depart="85.00" from="-296684660#9" to="662249674#4"/>
    <trip id="86" depart="86.00" from="157514944" to="41204029#0"/>
    <trip id="87" depart="87.00" from="-91667174#1" to="586192044#3"/>
    <trip id="88" depart="88.00" from="-200716196#1" to="562750768"/>
    <trip id="89" depart="89.00" from="91667176#2" to="28341901#19"/>
    <trip id="90" depart="90.00" from="-273034619#21" to="-91667170#2"/>
    <trip id="91" depart="91.00" from="91208039#4" to="-586187413#1"/>
    <trip id="92" depart="92.00" from="117159147#0" to="91667176#5"/>
    <trip id="93" depart="93.00" from="600354684#4" to="91215109#3"/>
    <trip id="94" depart="94.00" from="586187418#12" to="91215912#6"/>
    <trip id="95" depart="95.00" from="-91215088#0" to="-35868095#6"/>
    <trip id="96" depart="96.00" from="157514980#1" to="600354684#10"/>
    <trip id="97" depart="97.00" from="201096050" to="600354716#0"/>
    <trip id="98" depart="98.00" from="-91208046#0" to="41204025#0"/>
    <trip id="99" depart="99.00" from="600354684#8" to="91667184#7"/>
    <trip id="100" depart="100.00" from="91364316" to="-409754584#3"/>
    <trip id="101" depart="101.00" from="89907124#1" to="-89907123"/>
    <trip id="102" depart="102.00" from="-562750755#0" to="-91667176#5"/>
    <trip id="103" depart="103.00" from="28524049#2" to="-274936039#9"/>
    <trip id="104" depart="104.00" from="-89907128#1" to="87338876#8"/>
    <trip id="105" depart="105.00" from="273254456#4" to="274936039#11"/>
    <trip id="106" depart="106.00" from="-91205175#4" to="-274936039#12"/>
    <trip id="107" depart="107.00" from="87338871#11" to="-273034619#20"/>
    <trip id="108" depart="108.00" from="89907127#2" to="91208039#3"/>
    <trip id="109" depart="109.00" from="91364324#2" to="28524049#0"/>
    <trip id="110" depart="110.00" from="-200716196#3" to="35868088#5"/>
    <trip id="111" depart="111.00" from="91215088#0" to="-485965323"/>
    <trip id="112" depart="112.00" from="-28524049#0" to="91205175#3"/>
    <trip id="113" depart="113.00" from="379748559#2" to="586187434#8"/>
    <trip id="114" depart="114.00" from="-91215101" to="-296684660#1"/>
    <trip id="115" depart="115.00" from="-28524052#2" to="-89907127#3"/>
    <trip id="116" depart="116.00" from="117340958#0" to="41204032#2"/>
    <trip id="117" depart="117.00" from="34634618#1" to="258091333#5"/>
    <trip id="118" depart="118.00" from="-41204036#3" to="586192044#3"/>
    <trip id="119" depart="119.00" from="202548487#4" to="258091333#5"/>
    <trip id="120" depart="120.00" from="-91667170#1" to="91667178#0"/>
    <trip id="121" depart="121.00" from="91205175#6" to="-273254456#2"/>
    <trip id="122" depart="122.00" from="586187413#4" to="91364324#2"/>
    <trip id="123" depart="123.00" from="-87338882#0" to="41204028#3"/>
    <trip id="124" depart="124.00" from="462362574#1" to="-157229736"/>
    <trip id="125" depart="125.00" from="-91667176#8" to="485965223#1"/>
    <trip id="126" depart="126.00" from="-600354722" to="485965224#3"/>
    <trip id="127" depart="127.00" from="586187418#4" to="91252227#2"/>
    <trip id="128" depart="128.00" from="-117340981#0" to="91364329"/>
    <trip id="129" depart="129.00" from="87338871#7" to="117159196"/>
    <trip id="130" depart="130.00" from="-586187413#1" to="273034619#0"/>
    <trip id="131" depart="131.00" from="-91252220#0" to="41204036#4"/>
    <trip id="132" depart="132.00" from="91205173#10" to="91205172#2"/>
    <trip id="133" depart="133.00" from="-30644544#8" to="-87338882#4"/>
    <trip id="134" depart="134.00" from="89907124#3" to="89907137#13"/>
    <trip id="135" depart="135.00" from="-485965323" to="-91364318#1"/>
    <trip id="136" depart="136.00" from="202640209#4" to="41204029#4"/>
    <trip id="137" depart="137.00" from="-28524052#4" to="-91667180#0"/>
    <trip id="138" depart="138.00" from="-157229736" to="-201096055"/>
    <trip id="139" depart="139.00" from="563491779" to="586187400#5"/>
    <trip id="140" depart="140.00" from="600354693#0" to="-87338876#0"/>
    <trip id="141" depart="141.00" from="586187408#1" to="-273034619#13"/>
    <trip id="142" depart="142.00" from="586187415" to="273034619#20"/>
    <trip id="143" depart="143.00" from="-485965225#1" to="-91667184#0"/>
    <trip id="144" depart="144.00" from="-409754584#2" to="-202548522#0"/>
    <trip id="145" depart="145.00" from="-89907128#1" to="87338871#1"/>
    <trip id="146" depart="146.00" from="273034619#10" to="117340984#2"/>
    <trip id="147" depart="147.00" from="-117340981#0" to="91208039#3"/>
    <trip id="148" depart="148.00" from="89907292#9" to="201096054"/>
    <trip id="149" depart="149.00" from="-91205172#1" to="28341901#11"/>
    <trip id="150" depart="150.00" from="-91364323#1" to="66088108#4"/>
    <trip id="151" depart="151.00" from="-662249665#0" to="-117159196"/>
    <trip id="152" depart="152.00" from="-574904866" to="-91667161#0"/>
    <trip id="153" depart="153.00" from="-91667161#2" to="-91364321#0"/>
    <trip id="154" depart="154.00" from="-91667184#6" to="-202548522#1"/>
    <trip id="155" depart="155.00" from="-30644546#4" to="41204031#2"/>
    <trip id="156" depart="156.00" from="586187418#7" to="-485965307"/>
    <trip id="157" depart="157.00" from="-538631660#1" to="-91364328#2"/>
    <trip id="158" depart="158.00" from="-201096021" to="-30644544#5"/>
    <trip id="159" depart="159.00" from="-296684660#2" to="662249665#2"/>
    <trip id="160" depart="160.00" from="485965294#0" to="-91667176#11"/>
    <trip id="161" depart="161.00" from="-274936039#10" to="66088108#4"/>
    <trip id="162" depart="162.00" from="485965223#0" to="28341901#17"/>
    <trip id="163" depart="163.00" from="586187402#1" to="274936039#7"/>
    <trip id="164" depart="164.00" from="-91205175#6" to="35868095#2"/>
    <trip id="165" depart="165.00" from="600354720#1" to="548136028#0"/>
    <trip id="166" depart="166.00" from="-91205172#2" to="-91364318#2"/>
    <trip id="167" depart="167.00" from="-274936039#0" to="-591853446"/>
    <trip id="168" depart="168.00" from="-91667177#1" to="-91364319#1"/>
    <trip id="169" depart="169.00" from="91205175#6" to="-296684660#1"/>
    <trip id="170" depart="170.00" from="-91252220#0" to="157514944"/>
    <trip id="171" depart="171.00" from="89907137#3" to="157514922"/>
    <trip id="172" depart="172.00" from="-273034619#11" to="91667161#6"/>
    <trip id="173" depart="173.00" from="37452623#0" to="-91667176#9"/>
    <trip id="174" depart="174.00" from="-91208039#2" to="27427949#1"/>
    <trip id="175" depart="175.00" from="-89907125#4" to="-91215088#2"/>
    <trip id="176" depart="176.00" from="117159212#12" to="-30644544#4"/>
    <trip id="177" depart="177.00" from="-157229722" to="-201096021"/>
    <trip id="178" depart="178.00" from="-463048373" to="476097600#13"/>
    <trip id="179" depart="179.00" from="274936039#13" to="27427949#0"/>
    <trip id="180" depart="180.00" from="87338871#13" to="586187403#2"/>
    <trip id="181" depart="181.00" from="-91252219" to="-87338876#0"/>
    <trip id="182" depart="182.00" from="91205173#8" to="35868089#6"/>
    <trip id="183" depart="183.00" from="485965294#5" to="-91364330#1"/>
    <trip id="184" depart="184.00" from="201096048" to="-91215088#2"/>
    <trip id="185" depart="185.00" from="-91667180#4" to="202640208#4"/>
    <trip id="186" depart="186.00" from="-562750752" to="28341901#21"/>
    <trip id="187" depart="187.00" from="87338871#7" to="485965224#14"/>
    <trip id="188" depart="188.00" from="-30644544#7" to="91667176#10"/>
    <trip id="189" depart="189.00" from="-200716196#1" to="91364319#3"/>
    <trip id="190" depart="190.00" from="35868089#7" to="586187435#3"/>
    <trip id="191" depart="191.00" from="485965224#1" to="200716196#3"/>
    <trip id="192" depart="192.00" from="-91364318#1" to="117159125#11"/>
    <trip id="193" depart="193.00" from="-296684660#7" to="89907136#3"/>
    <trip id="194" depart="194.00" from="202548530#2" to="-274936039#1"/>
    <trip id="195" depart="195.00" from="91215912#2" to="485965226#1"/>
    <trip id="196" depart="196.00" from="586187418#2" to="-273034619#14"/>
    <trip id="197" depart="197.00" from="28524049#2" to="-28524049#0"/>
    <trip id="198" depart="198.00" from="201096053" to="202548529"/>
    <trip id="199" depart="199.00" from="586187409#2" to="600354700#1"/>
    <trip id="200" depart="200.00" from="485965227" to="-91205175#0"/>
    <trip id="201" depart="201.00" from="-157514980#1" to="409754577#1"/>
    <trip id="202" depart="202.00" from="586192044#2" to="586187413#4"/>
    <trip id="203" depart="203.00" from="-274936037#5" to="27427949#3"/>
    <trip id="204" depart="204.00" from="586187403#1" to="91667177#2"/>
    <trip id="205" depart="205.00" from="-274936037#4" to="117340984#1"/>
    <trip id="206" depart="206.00" from="485965294#3" to="33884440#5"/>
    <trip id="207" depart="207.00" from="91667180#2" to="91208046#0"/>
    <trip id="208" depart="208.00" from="117340984#0" to="89907137#7"/>
    <trip id="209" depart="209.00" from="202548487#5" to="89907135#1"/>
    <trip id="210" depart="210.00" from="35868092#1" to="274936039#17"/>
    <trip id="211" depart="211.00" from="273034619#17" to="37452624#1"/>
    <trip id="212" depart="212.00" from="-89907128#3" to="41204031#2"/>
    <trip id="213" depart="213.00" from="409754577#3" to="-485965307"/>
    <trip id="214" depart="214.00" from="-87338882#3" to="91252221"/>
    <trip id="215" depart="215.00" from="538631660#0" to="37452624#1"/>
    <trip id="216" depart="216.00" from="-35868095#1" to="586187418#0"/>
    <trip id="217" depart="217.00" from="586187418#12" to="-117340981#0"/>
    <trip id="218" depart="218.00" from="463048372" to="586187435#2"/>
    <trip id="219" depart="219.00" from="91252225#1" to="35868090"/>
    <trip id="220" depart="220.00" from="-91252221" to="586187418#4"/>
    <trip id="221" depart="221.00" from="37452623#2" to="-586187404#0"/>
    <trip id="222" depart="222.00" from="27427949#3" to="218058800"/>
    <trip id="223" depart="223.00" from="91215109#4" to="35868088#11"/>
    <trip id="224" depart="224.00" from="91215088#1" to="157229821#0"/>
    <trip id="225" depart="225.00" from="586187413#1" to="-91667176#11"/>
    <trip id="226" depart="226.00" from="-201086190#0" to="37452623#1"/>
    <trip id="227" depart="227.00" from="87338871#19" to="-87338882#3"/>
    <trip id="228" depart="228.00" from="-202548521#0" to="37452623#3"/>
    <trip id="229" depart="229.00" from="91252219" to="89907136#2"/>
    <trip id="230" depart="230.00" from="574904866" to="87338871#2"/>
    <trip id="231" depart="231.00" from="91215109#0" to="-41204040"/>
    <trip id="232" depart="232.00" from="-91667184#1" to="-41204036#0"/>
    <trip id="233" depart="233.00" from="-91364328#2" to="586187434#9"/>
    <trip id="234" depart="234.00" from="30644544#4" to="-91252225#0"/>
    <trip id="235" depart="235.00" from="117159212#3" to="-91364324#0"/>
    <trip id="236" depart="236.00" from="218058800" to="41204033#1"/>
    <trip id="237" depart="237.00" from="485965234" to="87338876#10"/>
    <trip id="238" depart="238.00" from="273034619#0" to="41204034"/>
    <trip id="239" depart="239.00" from="91364323#0" to="91208040#4"/>
    <trip id="240" depart="240.00" from="-274936037#5" to="-91205172#0"/>
    <trip id="241" depart="241.00" from="-91364318#0" to="87338876#1"/>
    <trip id="242" depart="242.00" from="586187416" to="-41204036#1"/>
    <trip id="243" depart="243.00" from="485965234" to="-91364324#2"/>
    <trip id="244" depart="244.00" from="562750764#1" to="463048380"/>
    <trip id="245" depart="245.00" from="66088108#15" to="-91667180#6"/>
    <trip id="246" depart="246.00" from="91205172#1" to="586187414#2"/>
    <trip id="247" depart="247.00" from="273924630#9" to="586187409#2"/>
    <trip id="248" depart="248.00" from="-87338876#4" to="274936039#11"/>
    <trip id="249" depart="249.00" from="-89907136#4" to="91667178#5"/>
    <trip id="250" depart="250.00" from="91667178#3" to="-296684660#9"/>
    <trip id="251" depart="251.00" from="35868089#2" to="91252219"/>
    <trip id="252" depart="252.00" from="463048373" to="586187409#2"/>
    <trip id="253" depart="253.00" from="91667161#3" to="91205172#0"/>
    <trip id="254" depart="254.00" from="30644546#4" to="-562750755#1"/>
    <trip id="255" depart="255.00" from="-87338878#0" to="229550319#1"/>
    <trip id="256" depart="256.00" from="91364319#1" to="202548521#0"/>
    <trip id="257" depart="257.00" from="157229821#2" to="-66088108#5"/>
    <trip id="258" depart="258.00" from="-66088108#6" to="-91252218#0"/>
    <trip id="259" depart="259.00" from="-91364330#1" to="157229574"/>
    <trip id="260" depart="260.00" from="-91364318#2" to="-91364329"/>
    <trip id="261" depart="261.00" from="89907292#9" to="-91364316"/>
    <trip id="262" depart="262.00" from="91364317" to="91215088#1"/>
    <trip id="263" depart="263.00" from="91667174#0" to="586187418#1"/>
    <trip id="264" depart="264.00" from="-485965294#2" to="-586187403#3"/>
    <trip id="265" depart="265.00" from="27427949#3" to="87338882#3"/>
    <trip id="266" depart="266.00" from="33884440#5" to="-91208046#0"/>
    <trip id="267" depart="267.00" from="89907129#0" to="91252226#8"/>
    <trip id="268" depart="268.00" from="548136027" to="-600354720#0"/>
    <trip id="269" depart="269.00" from="-91205172#1" to="-89907127#2"/>
    <trip id="270" depart="270.00" from="28341901#19" to="600354689#0"/>
    <trip id="271" depart="271.00" from="-274936039#6" to="91667178#4"/>
    <trip id="272" depart="272.00" from="274936037#5" to="202548487#3"/>
    <trip id="273" depart="273.00" from="-41204036#0" to="-37247674#3"/>
    <trip id="274" depart="274.00" from="-273034619#8" to="-28524049#0"/>
    <trip id="275" depart="275.00" from="586192044#5" to="202548522#0"/>
    <trip id="276" depart="276.00" from="117159212#5" to="89907137#10"/>
    <trip id="277" depart="277.00" from="409754577#5" to="586187434#8"/>
    <trip id="278" depart="278.00" from="41204032#2" to="-91205175#6"/>
    <trip id="279" depart="279.00" from="157514922" to="91667180#4"/>
    <trip id="280" depart="280.00" from="586187403#0" to="91205173#4"/>
    <trip id="281" depart="281.00" from="91364329" to="91252223#2"/>
    <trip id="282" depart="282.00" from="463048373" to="91364321#2"/>
    <trip id="283" depart="283.00" from="66088108#10" to="117159212#10"/>
    <trip id="284" depart="284.00" from="37247674#0" to="87338876#0"/>
    <trip id="285" depart="285.00" from="485965225#0" to="-485965323"/>
    <trip id="286" depart="286.00" from="-30644544#7" to="-30644544#10"/>
    <trip id="287" depart="287.00" from="-117159196" to="37452621#4"/>
    <trip id="288" depart="288.00" from="91215912#7" to="89907137#9"/>
    <trip id="289" depart="289.00" from="-201096056" to="66088108#16"/>
    <trip id="290" depart="290.00" from="273924630#21" to="-463048372"/>
    <trip id="291" depart="291.00" from="-89907124#1" to="91205175#6"/>
    <trip id="292" depart="292.00" from="27427949#1" to="91205173#4"/>
    <trip id="293" depart="293.00" from="91364319#2" to="35868088#8"/>
    <trip id="294" depart="294.00" from="89907137#6" to="409754577#2"/>
    <trip id="295" depart="295.00" from="549535051" to="-157229722"/>
    <trip id="296" depart="296.00" from="273034619#8" to="538631660#0"/>
    <trip id="297" depart="297.00" from="157229722" to="-91252218#1"/>
    <trip id="298" depart="298.00" from="-91667161#6" to="600354684#8"/>
    <trip id="299" depart="299.00" from="117340984#0" to="202640208#4"/>
    <trip id="300" depart="300.00" from="459195546" to="-485965294#3"/>
    <trip id="301" depart="301.00" from="-562750755#1" to="-91667178#2"/>
    <trip id="302" depart="302.00" from="-91667184#6" to="-548268401"/>
    <trip id="303" depart="303.00" from="-91667180#4" to="-89907123"/>
    <trip id="304" depart="304.00" from="89907134#7" to="89907137#15"/>
    <trip id="305" depart="305.00" from="-28524052#2" to="37247674#1"/>
    <trip id="306" depart="306.00" from="117159212#14" to="89907135#0"/>
    <trip id="307" depart="307.00" from="-91364319#2" to="117159212#4"/>
    <trip id="308" depart="308.00" from="89907130#0" to="87338882#2"/>
    <trip id="309" depart="309.00" from="-91667184#6" to="485965294#6"/>
    <trip id="310" depart="310.00" from="89907136#2" to="91667164"/>
    <trip id="311" depart="311.00" from="91208039#4" to="91667184#1"/>
    <trip id="312" depart="312.00" from="91215094" to="-91364330#1"/>
    <trip id="313" depart="313.00" from="91215088#2" to="586187403#1"/>
    <trip id="314" depart="314.00" from="-296684660#1" to="-296684660#2"/>
    <trip id="315" depart="315.00" from="586187418#6" to="37452623#2"/>
    <trip id="316" depart="316.00" from="89907292#3" to="273924630#7"/>
    <trip id="317" depart="317.00" from="-273034619#13" to="89907137#8"/>
    <trip id="318" depart="318.00" from="-30644546#0" to="91205175#0"/>
    <trip id="319" depart="319.00" from="117159125#12" to="117159212#5"/>
    <trip id="320" depart="320.00" from="87338876#4" to="89907125#3"/>
    <trip id="321" depart="321.00" from="-91667172#1" to="31822543#1"/>
    <trip id="322" depart="322.00" from="591853446" to="544148085"/>
    <trip id="323" depart="323.00" from="586187433#0" to="-91364328#3"/>
    <trip id="324" depart="324.00" from="-87338876#4" to="-274936039#10"/>
    <trip id="325" depart="325.00" from="273034619#9" to="35868088#1"/>
    <trip id="326" depart="326.00" from="379748559#6" to="-91215094"/>
    <trip id="327" depart="327.00" from="41204030#2" to="662249674#4"/>
    <trip id="328" depart="328.00" from="485965224#2" to="35868089#7"/>
    <trip id="329" depart="329.00" from="-273034619#20" to="-91208039#2"/>
    <trip id="330" depart="330.00" from="35868089#6" to="27427949#8"/>
    <trip id="331" depart="331.00" from="37247674#3" to="41204036#3"/>
    <trip id="332" depart="332.00" from="91364321#0" to="-586187436#1"/>
    <trip id="333" depart="333.00" from="586192044#4" to="273034619#21"/>
    <trip id="334" depart="334.00" from="-87338882#1" to="41204032#1"/>
    <trip id="335" depart="335.00" from="117340984#0" to="201096045"/>
    <trip id="336" depart="336.00" from="-273034619#8" to="91252226#4"/>
    <trip id="337" depart="337.00" from="35868088#2" to="-201096055"/>
    <trip id="338" depart="338.00" from="-91667178#4" to="35868088#1"/>
    <trip id="339" depart="339.00" from="409754577#8" to="258091333#2"/>
    <trip id="340" depart="340.00" from="91252225#2" to="-91252225#1"/>
    <trip id="341" depart="341.00" from="-66088108#2" to="485965224#5"/>
    <trip id="342" depart="342.00" from="-41204035" to="-89907127#2"/>
    <trip id="343" depart="343.00" from="-91364329" to="81679223#2"/>
    <trip id="344" depart="344.00" from="-274936036" to="157229736"/>
    <trip id="345" depart="345.00" from="-485965294#6" to="41204032#4"/>
    <trip id="346" depart="346.00" from="562750760" to="-41204036#3"/>
    <trip id="347" depart="347.00" from="91364317" to="-562750760"/>
    <trip id="348" depart="348.00" from="-274936039#10" to="-87338876#2"/>
    <trip id="349" depart="349.00" from="91667176#2" to="-201086190#1"/>
    <trip id="350" depart="350.00" from="91667164" to="-273034619#15"/>
    <trip id="351" depart="351.00" from="41204026#1" to="41204032#6"/>
    <trip id="352" depart="352.00" from="89907128#0" to="-591853446"/>
    <trip id="353" depart="353.00" from="600354694#1" to="273034619#20"/>
    <trip id="354" depart="354.00" from="117159125#13" to="485965224#6"/>
    <trip id="355" depart="355.00" from="218058800" to="273034619#20"/>
    <trip id="356" depart="356.00" from="89907292#10" to="91364329"/>
    <trip id="357" depart="357.00" from="274936039#6" to="-273034619#20"/>
    <trip id="358" depart="358.00" from="87338876#6" to="91205175#5"/>
    <trip id="359" depart="359.00" from="258091333#2" to="87338876#9"/>
    <trip id="360" depart="360.00" from="87338871#16" to="-157229574"/>
    <trip id="361" depart="361.00" from="202548530#1" to="-87338876#6"/>
    <trip id="362" depart="362.00" from="91667176#6" to="91252219"/>
    <trip id="363" depart="363.00" from="41204026#1" to="409754577#2"/>
    <trip id="364" depart="364.00" from="30644544#11" to="28341901#7"/>
    <trip id="365" depart="365.00" from="91252225#1" to="586187403#3"/>
    <trip id="366" depart="366.00" from="-91252218#0" to="89907129#2"/>
    <trip id="367" depart="367.00" from="-562750755#0" to="37452623#1"/>
    <trip id="368" depart="368.00" from="89907135#1" to="-91667184#0"/>
    <trip id="369" depart="369.00" from="-91364324#2" to="562750755#0"/>
    <trip id="370" depart="370.00" from="-586187404#0" to="-91667178#4"/>
    <trip id="371" depart="371.00" from="296684660#8" to="-37247674#0"/>
    <trip id="372" depart="372.00" from="41204040" to="87338871#12"/>
    <trip id="373" depart="373.00" from="91667176#5" to="91667176#7"/>
    <trip id="374" depart="374.00" from="91252226#0" to="35868088#1"/>
    <trip id="375" depart="375.00" from="-91252220#1" to="117159212#6"/>
    <trip id="376" depart="376.00" from="-66088108#11" to="600354724"/>
    <trip id="377" depart="377.00" from="409754577#5" to="-91667178#5"/>
    <trip id="378" depart="378.00" from="-30644544#5" to="30644544#11"/>
    <trip id="379" depart="379.00" from="-91215101" to="89907134#6"/>
    <trip id="380" depart="380.00" from="-87338882#3" to="87338871#4"/>
    <trip id="381" depart="381.00" from="-35868095#1" to="91252222"/>
    <trip id="382" depart="382.00" from="-80515757" to="-157514980#1"/>
    <trip id="383" depart="383.00" from="34634618#5" to="-91208039#2"/>
    <trip id="384" depart="384.00" from="35868088#8" to="41204036#0"/>
    <trip id="385" depart="385.00" from="409754577#7" to="562750752"/>
    <trip id="386" depart="386.00" from="89907134#6" to="89907124#3"/>
    <trip id="387" depart="387.00" from="548136027" to="229155110"/>
    <trip id="388" depart="388.00" from="409754577#1" to="548136027"/>
    <trip id="389" depart="389.00" from="273924630#19" to="-485965294#5"/>
    <trip id="390" depart="390.00" from="-91364324#1" to="202640208#3"/>
    <trip id="391" depart="391.00" from="202548487#4" to="91205173#7"/>
    <trip id="392" depart="392.00" from="202548530#3" to="-37247674#4"/>
    <trip id="393" depart="393.00" from="87338882#4" to="274936037#6"/>
    <trip id="394" depart="394.00" from="-157229821#2" to="-91205172#2"/>
    <trip id="395" depart="395.00" from="273924630#5" to="91252227#1"/>
    <trip id="396" depart="396.00" from="89907137#3" to="273924630#8"/>
    <trip id="397" depart="397.00" from="-157229574" to="91252226#1"/>
    <trip id="398" depart="398.00" from="91667177#1" to="274936039#7"/>
    <trip id="399" depart="399.00" from="-201096021" to="274936039#8"/>
    <trip id="400" depart="400.00" from="600354684#4" to="66088108#10"/>
    <trip id="401" depart="401.00" from="-485965230" to="91667178#1"/>
    <trip id="402" depart="402.00" from="87338876#8" to="-485965294#6"/>
    <trip id="403" depart="403.00" from="89907130#1" to="-273034619#6"/>
    <trip id="404" depart="404.00" from="600354684#13" to="201096044#0"/>
    <trip id="405" depart="405.00" from="379748559#2" to="37452619#2"/>
    <trip id="406" depart="406.00" from="-296684660#1" to="89907132#5"/>
    <trip id="407" depart="407.00" from="157229821#2" to="-91252220#0"/>
    <trip id="408" depart="408.00" from="31822543#3" to="91667170#2"/>
    <trip id="409" depart="409.00" from="89907125#3" to="87338871#17"/>
    <trip id="410" depart="410.00" from="37247674#3" to="-91205172#3"/>
    <trip id="411" depart="411.00" from="202548527#0" to="91667161#6"/>
    <trip id="412" depart="412.00" from="91667178#2" to="-91667184#6"/>
    <trip id="413" depart="413.00" from="-202548523#1" to="-66088108#10"/>