<?xml version="1.0" encoding="UTF-8"?>

<!-- generated on Sat Jul 18 22:57:12 2020 by Eclipse SUMO polyconvert Version 1.6.0
<configuration xmlns:xsi="http://www.w3.org/2001/XMLSchema-instance" xsi:noNamespaceSchemaLocation="http://sumo.dlr.de/xsd/polyconvertConfiguration.xsd">

    <input>
        <net-file value="osm.net.xml"/>
        <osm-files value="osm_bbox.osm.xml"/>
        <osm.keep-full-type value="true"/>
        <type-file value="/usr/share/sumo/data/typemap/osmPolyconvert.typ.xml"/>
    </input>

    <output>
        <output-file value="osm.poly.xml"/>
    </output>

    <processing>
        <poi-layer-offset value="5"/>
    </processing>

    <report>
        <verbose value="true"/>
    </report>

</configuration>
-->

<additional xmlns:xsi="http://www.w3.org/2001/XMLSchema-instance" xsi:noNamespaceSchemaLocation="http://sumo.dlr.de/xsd/additional_file.xsd">
    <location netOffset="-584165.81,-4510274.61" convBoundary="-0.00,-632.05,5940.64,7136.19" origBoundary="-74.003163,40.733280,-73.931813,40.802776" projParameter="+proj=utm +zone=18 +ellps=WGS84 +datum=WGS84 +units=m +no_defs"/>

    <poly id="108160358" type="amenity.bus_station" color="237,199,199" fill="1" layer="-1.00" shape="1019.876052,1896.215681 802.848169,2012.449940 812.519903,2030.379918 816.570467,2037.887066 821.356869,2046.746025 826.639153,2056.532160 831.896608,2066.273605 945.900794,2005.221625 954.400909,2009.737976 962.590478,2014.095337 963.375291,2015.592051 966.549070,2021.512695 975.954878,2039.040162 977.681811,2042.301857 971.361818,2045.693100 971.725699,2046.352313 973.841580,2050.295711 975.957460,2054.239110 979.123280,2060.115260 982.288968,2066.002512 985.462964,2071.900964 1085.553129,2018.396094 1052.683850,1957.066753 1048.923426,1950.040205 1019.876052,1896.215681"/>
    <poly id="108160358#1" type="building.transportation" color="255,230,230" fill="1" layer="-1.00" shape="1019.876052,1896.215681 802.848169,2012.449940 812.519903,2030.379918 816.570467,2037.887066 821.356869,2046.746025 826.639153,2056.532160 831.896608,2066.273605 945.900794,2005.221625 954.400909,2009.737976 962.590478,2014.095337 963.375291,2015.592051 966.549070,2021.512695 975.954878,2039.040162 977.681811,2042.301857 971.361818,2045.693100 971.725699,2046.352313 973.841580,2050.295711 975.957460,2054.239110 979.123280,2060.115260 982.288968,2066.002512 985.462964,2071.900964 1085.553129,2018.396094 1052.683850,1957.066753 1048.923426,1950.040205 1019.876052,1896.215681"/>
    <poly id="109269750" type="leisure.park" color="207,245,201" fill="1" layer="-2.00" shape="2467.401350,2767.711846 2465.931956,2768.482918 2436.840989,2783.785767 2435.116188,2785.464245 2434.077781,2787.639250 2433.838734,2790.034547 2434.427743,2792.361810 2489.699043,2895.793280 2492.813570,2900.148514 2496.580719,2903.556592 2500.864406,2906.104738 2505.698264,2907.804451 2512.184971,2908.202342 2517.252576,2907.240251 2522.149572,2904.988301 2525.957279,2902.046362 2528.958242,2898.795219 2531.379054,2894.626898 2532.585905,2891.043888 2533.160793,2886.643012 2532.768836,2881.187202 2530.922445,2875.225864 2473.338779,2769.613183 2472.170642,2768.444880 2470.685279,2767.694752 2469.042146,2767.442382 2467.401350,2767.711846"/>
    <poly id="109284794" type="building.commercial" color="255,230,230" fill="1" layer="-1.00" shape="1803.394217,2456.704698 1774.375315,2403.254777 1779.321173,2400.436688 1783.317911,2407.388664 1784.481630,2406.769341 1790.495915,2403.541773 1791.659636,2402.922451 1798.268900,2399.346522 1799.432623,2398.727202 1806.049949,2395.184680 1807.222242,2394.554358 1813.822694,2391.011647 1814.986419,2390.392329 1821.578567,2386.838427 1822.742294,2386.219110 1829.359642,2382.676609 1830.523499,2382.046192 1837.124103,2378.492401 1838.287832,2377.873087 1844.888443,2374.319303 1846.052173,2373.699989 1852.661233,2370.146310 1853.824964,2369.526998 1860.433902,2365.984426 1861.606076,2365.365213 1867.620558,2362.126606 1868.784421,2361.496195 1869.412637,2362.647024 1872.462027,2368.300184 1873.090113,2369.462114 1876.445485,2375.662841 1877.073698,2376.813670 1880.437375,2383.025598 1881.057018,2384.187430 1884.106647,2389.818394 1884.743299,2390.969323 1886.676899,2394.566712 1904.923806,2384.775615 1912.245931,2398.316636 1858.405938,2427.200863 1803.394217,2456.704698"/>
    <poly id="109284795" type="building.commercial" color="255,230,230" fill="1" layer="-1.00" shape="2068.242632,2336.004685 2071.359281,2341.669816 2074.962815,2348.295412 2079.640892,2356.887519 2083.211423,2363.446121 2090.071298,2376.060455 2094.046873,2383.356529 2096.808287,2388.351399 2035.513981,2422.254579 2006.035684,2438.165240 1978.494380,2453.032728 1971.452444,2440.094417 1977.076192,2437.062297 1961.975995,2409.286484 1956.216277,2412.394750 1949.546220,2400.138023 2006.659588,2369.305226 2068.242632,2336.004685"/>
    <poly id="109284804" type="building.commercial" color="255,230,230" fill="1" layer="-1.00" shape="1719.112648,2137.725427 1718.649090,2136.931793 1719.040080,2136.703180 1715.178440,2129.730609 1714.796020,2129.948220 1714.332461,2129.154586 1714.723451,2128.925973 1710.853362,2121.953307 1710.470942,2122.170918 1710.007382,2121.377284 1710.406813,2121.148768 1706.545029,2114.187303 1706.162479,2114.416015 1705.698918,2113.622382 1706.098478,2113.382765 1702.228373,2106.410104 1701.854393,2106.627814 1701.382390,2105.834083 1701.781822,2105.605567 1697.911708,2098.632908 1697.520846,2098.850422 1697.057283,2098.056789 1697.456715,2097.828273 1693.594905,2090.866815 1693.221054,2091.073424 1692.757490,2090.279792 1693.513892,2089.844471 1693.754050,2090.246935 1700.746603,2086.397802 1700.514757,2086.006536 1701.279730,2085.560212 1701.519760,2085.973778 1708.503880,2082.124554 1708.280475,2081.733386 1709.045320,2081.298164 1709.277037,2081.700531 1716.269606,2077.851412 1716.037889,2077.449045 1716.802735,2077.013824 1717.042764,2077.427390 1724.035471,2073.567178 1723.803625,2073.175911 1724.568601,2072.729590 1724.808630,2073.143156 1731.801215,2069.294052 1731.569370,2068.902785 1732.325906,2068.456366 1732.797908,2069.250099 1732.415355,2069.478809 1736.285453,2076.451486 1736.650995,2076.233681 1737.122996,2077.027413 1736.732003,2077.256026 1740.593780,2084.217506 1740.967762,2083.999799 1741.431193,2084.804535 1741.048769,2085.022144 1744.902226,2091.972428 1745.259197,2091.765626 1745.722756,2092.559262 1745.348774,2092.776969 1749.227288,2099.749751 1749.584259,2099.542949 1750.047816,2100.336584 1749.673705,2100.565392 1753.543770,2107.538078 1753.909311,2107.320274 1754.381308,2108.114008 1753.990316,2108.342619 1757.860501,2115.304208 1758.225912,2115.097504 1758.689467,2115.891140 1757.924494,2116.337458 1757.692781,2115.935089 1750.708665,2119.784267 1750.932195,2120.164336 1750.175664,2120.610752 1749.935509,2120.208286 1742.934391,2124.068375 1743.157793,2124.459545 1742.392950,2124.894763 1742.161236,2124.492395 1735.177137,2128.341587 1735.400667,2128.721655 1734.635697,2129.167975 1734.403983,2128.765608 1727.411451,2132.614709 1727.634853,2133.005878 1726.878324,2133.452296 1726.638297,2133.038730 1719.645773,2136.887839 1719.877617,2137.279105 1719.112648,2137.725427"/>
    <poly id="109284807" type="building.commercial" color="255,230,230" fill="1" layer="-1.00" shape="2097.700981,2287.786467 2095.650185,2284.109940 2092.898463,2279.004163 2081.758806,2258.379677 2079.057967,2253.252293 2077.033380,2249.498362 2099.196981,2237.621703 2097.048371,2233.644277 2105.568005,2229.158276 2104.312009,2226.823275 2157.763951,2198.124994 2159.019807,2200.471104 2165.919981,2213.252508 2167.415701,2216.023302 2156.627019,2221.792854 2164.832633,2237.009764 2175.485339,2231.316355 2176.980923,2234.098251 2183.856227,2246.834975 2185.120507,2249.181188 2130.726963,2278.290182 2104.823854,2292.321434 2099.294898,2290.824845 2097.700981,2287.786467"/>
    <poly id="109285745" type="building.commercial" color="255,230,230" fill="1" layer="-1.00" shape="1353.188085,1871.556851 1350.766811,1867.021399 1345.857876,1857.849810 1325.809296,1820.348265 1335.510840,1815.131173 1362.398380,1800.664515 1373.729182,1849.567384 1376.005145,1859.374720 1368.265365,1863.593006 1365.929006,1864.864988 1362.463416,1866.690146 1353.188085,1871.556851"/>
    <poly id="113690621" type="leisure.park" color="207,245,201" fill="1" layer="-2.00" shape="1773.032247,1952.210730 1792.586068,1941.912696 1799.712841,1938.154027 1814.001473,1964.709882 1820.571263,1976.931991 1816.595269,1979.084080 1824.776664,1994.289198 1820.793397,1996.341281 1801.862064,2006.113556 1800.555930,2003.722518 1774.916149,1955.740893 1773.032247,1952.210730"/>
    <poly id="113690622" type="natural.water" color="181,209,209" fill="1" layer="-4.00" shape="1844.177472,2330.135213 1866.128135,2318.366422 1849.756386,2288.078086 1827.805533,2299.858027 1844.177472,2330.135213"/>
    <poly id="118116797" type="building.yes" color="255,230,230" fill="1" layer="-1.00" shape="2174.250438,2164.166618 2147.660476,2113.940982 2148.544423,2110.531788 2201.212114,2082.568511 2202.502260,2084.870619 2203.253830,2086.300471 2205.595150,2090.402299 2210.800536,2100.110860 2213.056402,2104.300512 2218.976175,2115.005511 2221.266184,2119.162258 2226.825274,2128.941570 2229.295409,2133.577818 2229.946324,2134.950988 2230.904895,2136.727428 2177.649340,2165.172135 2174.250438,2164.166618"/>
    <poly id="118116797#1" type="shop.department_store" color="237,199,255" fill="1" layer="-1.00" shape="2174.250438,2164.166618 2147.660476,2113.940982 2148.544423,2110.531788 2201.212114,2082.568511 2202.502260,2084.870619 2203.253830,2086.300471 2205.595150,2090.402299 2210.800536,2100.110860 2213.056402,2104.300512 2218.976175,2115.005511 2221.266184,2119.162258 2226.825274,2128.941570 2229.295409,2133.577818 2229.946324,2134.950988 2230.904895,2136.727428 2177.649340,2165.172135 2174.250438,2164.166618"/>
    <poly id="118116810" type="building.commercial" color="255,230,230" fill="1" layer="-1.00" shape="2716.080741,2236.461044 2686.951569,2182.806277 2585.240622,2237.591972 2595.958849,2257.324133 2590.232760,2260.410105 2604.760508,2287.159132 2610.494894,2284.084371 2614.370288,2291.246335 2716.080741,2236.461044"/>
    <poly id="118476490" type="building.commercial" color="255,230,230" fill="1" layer="-1.00" shape="2415.275325,2127.189586 2413.663707,2124.228647 2411.754699,2120.709120 2409.382851,2116.340412 2405.514956,2109.234164 2404.762907,2107.848693 2403.994236,2106.440824 2403.233876,2105.044155 2402.473515,2103.647485 2401.721595,2102.250914 2400.978765,2100.798938 2399.407178,2101.635446 2398.828887,2100.551768 2398.655257,2100.238875 2397.919959,2098.864704 2397.151026,2097.479037 2396.390664,2096.082368 2395.630301,2094.685699 2394.861367,2093.300032 2394.100874,2091.914465 2390.199316,2084.796730 2387.826924,2080.472432 2385.983734,2077.098011 2384.694162,2074.751467 2384.437806,2074.293279 2400.996796,2065.305214 2425.235391,2052.232507 2454.483727,2106.009685 2448.579155,2109.193601 2430.211096,2119.115204 2415.275325,2127.189586"/>
    <poly id="118476491" type="building.commercial" color="255,230,230" fill="1" layer="-1.00" shape="2309.766837,2085.078515 2288.053729,2044.546060 2335.194828,2019.294773 2346.052881,2039.427853 2356.890880,2059.827170 2309.766837,2085.078515"/>
    <poly id="118476493" type="building.commercial" color="255,230,230" fill="1" layer="-1.00" shape="2568.025278,2315.616976 2539.188087,2262.199371 2498.119870,2284.367357 2511.588384,2309.316335 2501.002783,2315.032256 2516.380128,2343.500798 2568.025278,2315.616976"/>
    <poly id="118476502" type="building.commercial" color="255,230,230" fill="1" layer="-1.00" shape="2147.520162,2381.703547 2159.944591,2404.330425 2164.209521,2402.004253 2166.738940,2406.618970 2175.956091,2423.390909 2181.700590,2433.905107 2220.883322,2412.557189 2224.281100,2410.753846 2262.164747,2390.068226 2232.232640,2335.551064 2190.951014,2358.040195 2147.520162,2381.703547"/>
    <poly id="137707119" type="building.commercial" color="255,230,230" fill="1" layer="-1.00" shape="1733.833155,2580.498057 1725.603944,2565.092618 1728.695608,2563.463138 1718.813787,2544.974322 1715.721989,2546.614907 1707.674403,2531.555766 1736.561409,2516.314322 1784.272200,2491.010741 1792.434777,2486.697883 1800.775648,2482.298285 1815.870903,2474.180141 1819.837990,2481.498169 1837.938096,2515.581291 1842.020728,2523.122720 1826.925669,2531.229710 1818.805579,2535.520818 1810.430607,2539.953305 1762.711590,2565.256618 1733.833155,2580.498057"/>
    <poly id="137716320" type="building.yes" color="255,230,230" fill="1" layer="-1.00" shape="1506.455895,2158.088865 1481.139805,2109.745652 1531.310043,2083.613978 1534.964669,2090.983732 1535.452032,2091.910856 1537.790246,2096.312188 1545.060893,2110.007649 1554.794450,2104.924445 1565.896125,2126.058350 1569.008236,2132.156189 1537.225689,2148.752583 1534.458706,2143.469214 1506.455895,2158.088865"/>
    <poly id="137860913" type="building.commercial" color="255,230,230" fill="1" layer="-1.00" shape="2392.752269,1867.044616 2388.358111,1858.722088 2382.649731,1861.719614 2364.675962,1827.725466 2370.554225,1824.641093 2365.978195,1815.983388 2460.599969,1766.363072 2487.534889,1817.348817 2392.752269,1867.044616"/>
    <poly id="137874157" type="building.commercial" color="255,230,230" fill="1" layer="-1.00" shape="1578.757309,2572.727982 1513.503741,2607.721974 1512.842501,2606.504180 1510.617099,2607.688578 1487.558355,2565.033520 1489.885694,2563.794783 1489.249383,2562.610587 1554.409731,2527.670809 1578.757309,2572.727982"/>
    <poly id="137874843" type="amenity.theatre" color="237,199,199" fill="1" layer="-1.00" shape="1484.724237,2559.727182 1455.300414,2575.462984 1460.895405,2585.841646 1462.548209,2588.913870 1464.746660,2592.980503 1470.118352,2602.956910 1476.895127,2615.525289 1478.754692,2618.966282 1484.267008,2629.188577 1513.690815,2613.441790 1510.617099,2607.688578 1487.558355,2565.033520 1484.724237,2559.727182"/>
    <poly id="137874843#1" type="building.yes" color="255,230,230" fill="1" layer="-1.00" shape="1484.724237,2559.727182 1455.300414,2575.462984 1460.895405,2585.841646 1462.548209,2588.913870 1464.746660,2592.980503 1470.118352,2602.956910 1476.895127,2615.525289 1478.754692,2618.966282 1484.267008,2629.188577 1513.690815,2613.441790 1510.617099,2607.688578 1487.558355,2565.033520 1484.724237,2559.727182"/>
    <poly id="137880206" type="building.yes" color="255,230,230" fill="1" layer="-1.00" shape="2721.765194,2137.617530 2744.810448,2124.831620 2755.141458,2119.268481 2743.729493,2098.240084 2740.680118,2092.630962 2736.845896,2085.558235 2731.247143,2088.567881 2726.693641,2080.198858 2732.360448,2077.145597 2730.840103,2074.329988 2720.441002,2079.936772 2697.202572,2091.910028 2679.011905,2101.788695 2673.956671,2104.527199 2686.505979,2127.211956 2721.765194,2137.617530"/>
    <poly id="137883073" type="building.yes" color="255,230,230" fill="1" layer="-1.00" shape="2322.261805,2628.680258 2317.902219,2621.046496 2315.852797,2617.269996 2311.646682,2609.504804 2309.407398,2605.359714 2307.771826,2602.287493 2320.974692,2595.047555 2323.752627,2593.547884 2350.163647,2579.345705 2353.068850,2577.792020 2355.184547,2576.617691 2361.130785,2573.445299 2375.226131,2598.923173 2322.261805,2628.680258"/>
    <poly id="137885993" type="building.commercial" color="255,230,230" fill="1" layer="-1.00" shape="2553.894884,2052.305486 2553.018839,2050.696503 2538.961551,2024.807987 2559.157320,2013.842226 2558.016872,2011.741647 2563.140303,2008.948351 2575.681113,2002.122973 2578.765413,2000.438240 2580.507166,1999.492740 2582.860715,1998.210235 2584.959339,1997.069074 2599.145863,2023.447693 2599.334808,2023.893997 2599.542966,2024.862333 2599.526593,2025.539380 2599.373731,2026.336953 2598.957763,2027.253569 2598.665953,2027.660935 2598.324016,2028.023304 2597.514954,2028.624452 2553.894884,2052.305486"/>
    <poly id="137891657" type="building.commercial" color="255,230,230" fill="1" layer="-1.00" shape="2607.663956,2044.364233 2580.571491,2058.879532 2587.173710,2071.102739 2531.315487,2101.035481 2542.949972,2122.576843 2528.091347,2130.540881 2538.924296,2150.596256 2636.733108,2098.195578 2607.663956,2044.364233"/>
    <poly id="138000178" type="building.yes" color="255,230,230" fill="1" layer="-1.00" shape="2957.579913,2503.732169 2962.320414,2509.794278 2961.751532,2511.508441 2961.359643,2513.246891 2961.186995,2514.288475 2961.034185,2515.796589 2960.980050,2517.527910 2961.019985,2518.438768 2955.935526,2517.934863 2957.306762,2520.493419 2967.080546,2538.583017 2971.533498,2546.840004 2974.325937,2552.013222 2978.079817,2551.524482 2982.057202,2550.694202 2984.667215,2549.847834 2987.714639,2555.590275 2929.044547,2586.463898 2900.139304,2531.967042 2952.778590,2504.275213 2953.588142,2505.783546 2957.579913,2503.732169"/>
    <poly id="138000182" type="building.yes" color="255,230,230" fill="1" layer="-1.00" shape="2971.742763,2496.049469 2974.367177,2503.307941 2976.833878,2503.880977 2978.413269,2504.532392 2980.091727,2505.373711 2981.633959,2506.313349 2982.035712,2506.606736 2984.653910,2502.196627 2995.689411,2522.821331 3003.140163,2536.731381 3000.503881,2539.808995 2997.780504,2542.397084 2995.735561,2544.005054 2998.552391,2549.256285 3042.445448,2525.936379 3013.229383,2471.357696 2974.220554,2492.092899 2975.362504,2494.049237 2971.742763,2496.049469"/>
    <poly id="138000184" type="building.yes" color="255,230,230" fill="1" layer="-1.00" shape="2970.047172,2535.409357 2971.319954,2536.290311 2973.946835,2537.597983 2976.072898,2538.422364 2977.917466,2538.777137 2979.908790,2538.856079 2981.811055,2538.612008 2983.767883,2538.035511 2985.772139,2537.015480 2987.339314,2535.834875 2988.655362,2534.473677 2989.952621,2532.557144 2990.733307,2530.778862 2991.157267,2529.185121 2991.580494,2526.936336 2991.660872,2525.127607 2991.597499,2523.339392 2995.689411,2522.821331 3003.140163,2536.731381 3000.503881,2539.808995 2997.780504,2542.397084 2995.735561,2544.005054 2995.002747,2544.584852 2991.914782,2546.591332 2988.279618,2548.469250 2984.667215,2549.847834 2982.057202,2550.694202 2978.079817,2551.524482 2974.325937,2552.013222 2971.533498,2546.840004 2967.080546,2538.583017 2970.047172,2535.409357"/>
    <poly id="138152330" type="building.yes" color="255,230,230" fill="1" layer="-1.00" shape="1069.369619,1926.661054 1068.926970,1926.977924 1048.024372,1888.756792 1048.577525,1888.374578 1047.370381,1886.162455 1049.196879,1885.173166 1057.173824,1880.868463 1054.668728,1876.265534 1054.445666,1875.841084 1077.008702,1863.677327 1077.256577,1864.146472 1079.736723,1868.715815 1091.009759,1862.639419 1089.010910,1858.797255 1153.977349,1824.184714 1165.853626,1846.370497 1168.936131,1852.145849 1180.820246,1874.376158 1179.996324,1874.810754 1180.556775,1875.994045 1117.112123,1910.446233 1113.728019,1904.467591 1102.455026,1910.543952 1104.960208,1915.135797 1105.233147,1915.627436 1082.670344,1927.780005 1082.405846,1927.288464 1079.892213,1922.696530 1072.119165,1926.892532 1070.088935,1927.979391 1069.369619,1926.661054"/>
    <poly id="138152331" type="building.yes" color="255,230,230" fill="1" layer="-1.00" shape="1109.362258,1895.024864 1128.359282,1884.618769 1117.759157,1865.245494 1098.762612,1875.607213 1109.362258,1895.024864"/>
    <poly id="143858914" type="building.yes" color="255,230,230" fill="1" layer="-1.00" shape="1351.189701,2270.591978 1365.506731,2296.958547 1365.779509,2297.461297 1369.788442,2304.857266 1380.129170,2323.917092 1420.752682,2301.915501 1437.964380,2292.544291 1423.656036,2266.177677 1419.858728,2268.232118 1406.494173,2275.616110 1392.809790,2282.918716 1372.582789,2293.887233 1357.951818,2266.928608 1351.189701,2270.591978"/>
    <poly id="143858914#1" type="tourism.hotel" color="207,245,201" fill="1" layer="-2.00" shape="1351.189701,2270.591978 1365.506731,2296.958547 1365.779509,2297.461297 1369.788442,2304.857266 1380.129170,2323.917092 1420.752682,2301.915501 1437.964380,2292.544291 1423.656036,2266.177677 1419.858728,2268.232118 1406.494173,2275.616110 1392.809790,2282.918716 1372.582789,2293.887233 1357.951818,2266.928608 1351.189701,2270.591978"/>
    <poly id="144919873" type="building.yes" color="255,230,230" fill="1" layer="-1.00" shape="2524.770115,1887.739843 2496.044203,1834.012937 2478.926288,1843.094186 2456.388434,1855.054192 2439.160231,1864.189752 2467.886423,1917.916436 2485.114671,1908.769843 2507.643843,1896.820927 2524.770115,1887.739843"/>
    <poly id="144919873#1" type="tourism.hotel" color="207,245,201" fill="1" layer="-2.00" shape="2524.770115,1887.739843 2496.044203,1834.012937 2478.926288,1843.094186 2456.388434,1855.054192 2439.160231,1864.189752 2467.886423,1917.916436 2485.114671,1908.769843 2507.643843,1896.820927 2524.770115,1887.739843"/>
    <poly id="144919878" type="building.commercial" color="255,230,230" fill="1" layer="-1.00" shape="2457.093920,1916.735506 2433.655123,1872.907280 2392.971860,1894.491966 2416.402380,1938.319964 2457.093920,1916.735506"/>
    <poly id="144932295" type="building.commercial" color="255,230,230" fill="1" layer="-1.00" shape="2324.313641,1752.402695 2349.592186,1797.828546 2446.811159,1744.152754 2421.541446,1698.726668 2324.313641,1752.402695"/>
    <poly id="145038500" type="building.yes" color="255,230,230" fill="1" layer="-1.00" shape="2799.140571,1941.804314 2796.523853,1943.205788 2772.260199,1956.165989 2770.119327,1957.306602 2798.689944,2010.388894 2825.094341,1996.288182 2823.830215,1993.941858 2821.913052,1990.411024 2821.095363,1988.869307 2820.517123,1987.785595 2817.246362,1981.618729 2813.992347,1975.463163 2810.685073,1969.529019 2813.310226,1968.127650 2810.186960,1962.339996 2809.460425,1960.943681 2799.991514,1943.390828 2799.140571,1941.804314"/>
    <poly id="145038506" type="building.office" color="255,230,230" fill="1" layer="-1.00" shape="2862.312863,2066.314467 2873.671943,2060.208453 2884.282221,2054.604362 2878.699814,2044.002693 2874.295648,2035.868478 2865.882540,2033.382632 2858.630057,2019.774844 2856.177021,2015.149681 2851.261848,2005.954761 2841.109828,2011.353340 2812.403297,2026.670416 2810.716118,2032.312767 2822.388083,2054.199196 2823.156421,2055.629312 2825.188743,2059.416852 2827.096923,2062.991992 2833.137437,2064.783791 2847.682705,2069.162408 2853.470889,2070.873543 2860.885887,2067.052656 2862.312863,2066.314467"/>
    <poly id="145043141" type="building.yes" color="255,230,230" fill="1" layer="-1.00" shape="2886.393328,2145.068372 2888.182383,2143.690511 2889.792911,2141.699926 2891.009582,2139.460462 2891.870595,2136.595091 2891.996927,2132.311094 2891.703164,2127.855625 2890.289599,2120.988902 2888.656184,2116.306745 2886.801695,2112.476866 2884.604121,2108.387603 2881.671166,2103.656869 2878.703361,2099.736193 2875.465791,2096.500689 2872.044695,2093.795941 2869.947076,2092.694371 2867.312097,2091.342238 2865.252378,2090.607490 2862.193611,2090.116358 2859.812311,2090.166096 2857.906676,2090.687718 2856.342821,2091.579732 2854.578823,2092.980100 2853.001668,2095.004391 2851.818505,2097.266459 2850.999578,2100.143432 2850.713838,2103.626191 2851.106052,2108.327064 2852.677688,2115.395477 2854.436698,2120.167919 2856.449625,2124.166185 2858.723440,2128.234131 2861.782624,2132.999646 2864.967934,2137.089406 2868.240949,2140.180992 2871.696180,2142.852834 2875.322094,2144.649603 2878.357433,2145.695581 2881.425270,2146.131316 2883.825391,2145.915272 2886.393328,2145.068372"/>
    <poly id="145341258" type="building.commercial" color="255,230,230" fill="1" layer="-1.00" shape="2595.522202,2159.829956 2591.746058,2152.835703 2568.935702,2165.058614 2589.444574,2203.013222 2612.450294,2190.681641 2608.178388,2182.771183 2615.594964,2178.794643 2623.758666,2193.911673 2647.197825,2181.341026 2638.934945,2166.045171 2633.126066,2155.296709 2632.641807,2155.557489 2629.667043,2150.060311 2625.998317,2143.267139 2625.048021,2141.512947 2623.527650,2138.697359 2620.445610,2132.987985 2618.338408,2129.099705 2595.417421,2141.387855 2603.168131,2155.733965 2595.522202,2159.829956"/>
    <poly id="145427087" type="building.yes" color="255,230,230" fill="1" layer="-1.00" shape="1904.307276,2673.171617 2026.245781,2607.865242 1997.590621,2554.540732 1873.389333,2621.286799 1887.738914,2648.265461 1889.888146,2647.102494 1898.307385,2662.099555 1904.307276,2673.171617"/>
    <poly id="145427087#1" type="tourism.hotel" color="207,245,201" fill="1" layer="-2.00" shape="1904.307276,2673.171617 2026.245781,2607.865242 1997.590621,2554.540732 1873.389333,2621.286799 1887.738914,2648.265461 1889.888146,2647.102494 1898.307385,2662.099555 1904.307276,2673.171617"/>
    <poly id="146028962" type="building.commercial" color="255,230,230" fill="1" layer="-1.00" shape="1888.515953,2591.564189 1885.954474,2586.793764 1881.715682,2578.895222 1871.169850,2559.465887 1868.558221,2554.650478 1866.531424,2551.085316 1862.067145,2542.973224 1859.445774,2538.268728 1885.582285,2523.650942 1888.375738,2528.801537 1944.518539,2498.567635 1948.855375,2506.744909 1958.862426,2501.354556 1974.054893,2529.164752 1963.096455,2535.065825 1967.369209,2542.942605 1912.551876,2572.458987 1915.155159,2577.263213 1888.515953,2591.564189"/>
    <poly id="146028965" type="building.commercial" color="255,230,230" fill="1" layer="-1.00" shape="1842.020728,2523.122720 1837.938096,2515.581291 1819.837990,2481.498169 1815.870903,2474.180141 1868.627204,2446.248923 1872.592708,2453.700189 1876.992437,2451.386523 1875.389640,2448.381398 1921.460950,2424.036630 1942.857969,2464.231268 1896.761379,2488.586709 1895.092364,2485.469786 1890.675638,2487.794346 1894.665902,2495.290322 1875.441127,2505.714008 1842.020728,2523.122720"/>
    <poly id="146031971" type="building.commercial" color="255,230,230" fill="1" layer="-1.00" shape="1773.673393,2380.809000 1769.825525,2382.851574 1754.484973,2391.000276 1740.774089,2365.639142 1724.948295,2374.137548 1711.278580,2348.854666 1751.374382,2327.303938 1757.134890,2337.951200 1822.511068,2302.882981 1838.601963,2332.646189 1768.086593,2370.474601 1773.673393,2380.809000"/>
    <poly id="146109229" type="building.yes" color="255,230,230" fill="1" layer="-1.00" shape="2494.803944,2377.287876 2484.201570,2383.003623 2470.504188,2390.614974 2477.243529,2402.650958 2488.459653,2423.121542 2512.776609,2409.761398 2494.803944,2377.287876"/>
    <poly id="146220936" type="building.commercial" color="255,230,230" fill="1" layer="-1.00" shape="2271.804251,1846.147856 2305.921656,1827.960866 2296.344760,1810.140984 2286.767816,1792.321115 2277.199266,1774.501358 2243.073252,1792.688382 2271.804251,1846.147856"/>
    <poly id="146257145" type="building.office" color="255,230,230" fill="1" layer="-1.00" shape="2919.663536,2392.818434 2916.077781,2386.181513 2909.723878,2374.449404 2916.588654,2370.733132 2913.730012,2365.437037 2920.084958,2362.003433 2920.175718,2362.182137 2923.902103,2369.064964 2946.272102,2356.960088 2955.253198,2373.563730 2919.663536,2392.818434"/>
    <poly id="146278002" type="building.commercial" color="255,230,230" fill="1" layer="-1.00" shape="2296.146680,1915.354741 2290.982694,1905.713220 2289.296948,1902.584914 2280.084149,1885.402127 2278.481252,1882.408017 2272.854220,1871.928439 2311.626528,1851.297789 2334.918833,1894.724214 2296.146680,1915.354741"/>
    <poly id="146278003" type="building.commercial" color="255,230,230" fill="1" layer="-1.00" shape="2290.982694,1905.713220 2289.296948,1902.584914 2280.084149,1885.402127 2278.481252,1882.408017 2269.009215,1887.437830 2262.374480,1875.048016 2207.937793,1903.978370 2233.617599,1951.928720 2287.977427,1923.053175 2281.417175,1910.797438 2290.982694,1905.713220"/>
    <poly id="147301613" type="building.yes" color="255,230,230" fill="1" layer="-1.00" shape="2767.641426,1846.887602 2766.980186,1845.680796 2759.227357,1831.512134 2756.408895,1826.360913 2746.909559,1831.523033 2746.189355,1830.304436 2736.034824,1812.155213 2732.168984,1814.241499 2715.227989,1823.324286 2702.619346,1830.137541 2702.234016,1830.599317 2702.125690,1831.197570 2702.279307,1831.776689 2722.827839,1869.976354 2723.078995,1870.156936 2723.651183,1870.319080 2723.946891,1870.300344 2724.447664,1870.073070 2737.216907,1863.239533 2758.150549,1852.049806 2767.641426,1846.887602"/>
    <poly id="148241073" type="building.commercial" color="255,230,230" fill="1" layer="-1.00" shape="2514.966244,2289.749255 2533.077273,2280.124621 2541.793043,2296.402660 2523.690481,2306.027372 2514.966244,2289.749255"/>
    <poly id="148251193" type="building.apartments" color="255,230,230" fill="1" layer="-1.00" shape="2170.364472,2500.419820 2167.383055,2501.994893 2164.393587,2503.536566 2156.315853,2507.794497 2153.325743,2509.391679 2150.445104,2511.012342 2146.612919,2504.461755 2143.521005,2506.102163 2140.429222,2507.731471 2136.926470,2501.162524 2129.606540,2487.476962 2127.871648,2484.225990 2130.963567,2482.585575 2134.055487,2480.945162 2148.198403,2473.449416 2151.290202,2471.820111 2154.297725,2470.178722 2170.364472,2500.419820"/>
    <poly id="148251198" type="building.yes" color="255,230,230" fill="1" layer="-1.00" shape="2267.126953,2477.734098 2299.805179,2460.374118 2290.983251,2443.762061 2285.613949,2433.662937 2281.620783,2435.847882 2278.970446,2437.260242 2252.968629,2451.089979 2255.677583,2456.228630 2261.626093,2467.333695 2265.137324,2473.891700 2267.126953,2477.734098"/>
    <poly id="150389907" type="building.yes" color="255,230,230" fill="1" layer="-1.00" shape="2917.999077,2217.027436 3021.555562,2161.335366 3020.695075,2159.848633 3011.508046,2142.798405 3001.195982,2123.780947 2992.569791,2107.847575 2889.004493,2163.528853 2917.999077,2217.027436"/>