<?xml version="1.0" encoding="UTF-8"?>

<!-- generated on Sat Jul 18 22:57:10 2020 by Eclipse SUMO netconvert Version 1.6.0
<configuration xmlns:xsi="http://www.w3.org/2001/XMLSchema-instance" xsi:noNamespaceSchemaLocation="http://sumo.dlr.de/xsd/netconvertConfiguration.xsd">

    <input>
        <type-files value="/usr/share/sumo/data/typemap/osmNetconvert.typ.xml"/>
        <osm-files value="osm_bbox.osm.xml"/>
    </input>

    <output>
        <output-file value="osm.net.xml"/>
        <output.street-names value="true"/>
        <output.original-names value="true"/>
    </output>

    <projection>
        <proj.utm value="true"/>
    </projection>

    <processing>
        <geometry.remove value="true"/>
        <roundabouts.guess value="true"/>
    </processing>

    <tls_building>
        <tls.discard-simple value="true"/>
        <tls.join value="true"/>
        <tls.guess-signals value="true"/>
        <tls.default-type value="actuated"/>
    </tls_building>

    <ramp_guessing>
        <ramps.guess value="true"/>
    </ramp_guessing>

    <junctions>
        <junctions.join value="true"/>
        <junctions.corner-detail value="5"/>
    </junctions>

    <report>
        <verbose value="true"/>
        <aggregate-warnings value="5"/>
    </report>

</configuration>
-->

<net version="1.6" junctionCornerDetail="5" limitTurnSpeed="5.50" xmlns:xsi="http://www.w3.org/2001/XMLSchema-instance" xsi:noNamespaceSchemaLocation="http://sumo.dlr.de/xsd/net_file.xsd">

    <location netOffset="-584165.81,-4510274.61" convBoundary="0.00,0.00,5940.64,7136.19" origBoundary="-74.003163,40.733280,-73.931813,40.802776" projParameter="+proj=utm +zone=18 +ellps=WGS84 +datum=WGS84 +units=m +no_defs"/>

    <type id="highway.bridleway" priority="1" numLanes="1" speed="2.78" allow="pedestrian" oneway="1" width="2.00"/>
    <type id="highway.bus_guideway" priority="1" numLanes="1" speed="27.78" allow="bus" oneway="1"/>
    <type id="highway.cycleway" priority="1" numLanes="1" speed="8.33" allow="bicycle" oneway="0" width="1.00"/>
    <type id="highway.footway" priority="1" numLanes="1" speed="2.78" allow="pedestrian" oneway="1" width="2.00"/>
    <type id="highway.ford" priority="1" numLanes="1" speed="2.78" allow="army" oneway="0"/>
    <type id="highway.living_street" priority="2" numLanes="1" speed="2.78" disallow="tram rail_urban rail rail_electric rail_fast ship" oneway="0"/>
    <type id="highway.motorway" priority="14" numLanes="2" speed="39.44" allow="private emergency authority army vip passenger hov taxi bus coach delivery truck trailer motorcycle evehicle custom1 custom2" oneway="1"/>
    <type id="highway.motorway_link" priority="9" numLanes="1" speed="22.22" allow="private emergency authority army vip passenger hov taxi bus coach delivery truck trailer motorcycle evehicle custom1 custom2" oneway="1"/>
    <type id="highway.path" priority="1" numLanes="1" speed="2.78" allow="pedestrian bicycle" oneway="1" width="2.00"/>
    <type id="highway.pedestrian" priority="1" numLanes="1" speed="2.78" allow="pedestrian" oneway="1" width="2.00"/>
    <type id="highway.primary" priority="12" numLanes="2" speed="27.78" disallow="tram rail_urban rail rail_electric rail_fast ship" oneway="0"/>
    <type id="highway.primary_link" priority="7" numLanes="1" speed="22.22" disallow="tram rail_urban rail rail_electric rail_fast ship" oneway="0"/>
    <type id="highway.raceway" priority="15" numLanes="2" speed="83.33" allow="vip" oneway="0"/>
    <type id="highway.residential" priority="3" numLanes="1" speed="13.89" disallow="tram rail_urban rail rail_electric rail_fast ship" oneway="0"/>
    <type id="highway.secondary" priority="11" numLanes="1" speed="27.78" disallow="tram rail_urban rail rail_electric rail_fast ship" oneway="0"/>
    <type id="highway.secondary_link" priority="6" numLanes="1" speed="22.22" disallow="tram rail_urban rail rail_electric rail_fast ship" oneway="0"/>
    <type id="highway.service" priority="1" numLanes="1" speed="5.56" allow="pedestrian delivery bicycle" oneway="0"/>
    <type id="highway.stairs" priority="1" numLanes="1" speed="1.39" allow="pedestrian" oneway="1" width="2.00"/>
    <type id="highway.step" priority="1" numLanes="1" speed="1.39" allow="pedestrian" oneway="1" width="2.00"/>
    <type id="highway.steps" priority="1" numLanes="1" speed="1.39" allow="pedestrian" oneway="1" width="2.00"/>
    <type id="highway.tertiary" priority="10" numLanes="1" speed="22.22" disallow="tram rail_urban rail rail_electric rail_fast ship" oneway="0"/>
    <type id="highway.tertiary_link" priority="5" numLanes="1" speed="22.22" disallow="tram rail_urban rail rail_electric rail_fast ship" oneway="0"/>
    <type id="highway.track" priority="1" numLanes="1" speed="5.56" disallow="tram rail_urban rail rail_electric rail_fast ship" oneway="0"/>
    <type id="highway.trunk" priority="13" numLanes="2" speed="27.78" disallow="pedestrian bicycle tram rail_urban rail rail_electric rail_fast ship" oneway="0"/>
    <type id="highway.trunk_link" priority="8" numLanes="1" speed="22.22" disallow="pedestrian bicycle tram rail_urban rail rail_electric rail_fast ship" oneway="0"/>
    <type id="highway.unclassified" priority="4" numLanes="1" speed="13.89" disallow="tram rail_urban rail rail_electric rail_fast ship" oneway="0"/>
    <type id="highway.unsurfaced" priority="1" numLanes="1" speed="8.33" disallow="tram rail_urban rail rail_electric rail_fast ship" oneway="0"/>
    <type id="railway.highspeed" priority="21" numLanes="1" speed="69.44" allow="rail_fast" oneway="1"/>
    <type id="railway.light_rail" priority="19" numLanes="1" speed="27.78" allow="rail_urban" oneway="1"/>
    <type id="railway.preserved" priority="16" numLanes="1" speed="27.78" allow="rail" oneway="1"/>
    <type id="railway.rail" priority="20" numLanes="1" speed="44.44" allow="rail" oneway="1"/>
    <type id="railway.subway" priority="18" numLanes="1" speed="27.78" allow="rail_urban" oneway="1"/>
    <type id="railway.tram" priority="17" numLanes="1" speed="13.89" allow="tram" oneway="1"/>

    <edge id=":1289222431_0" function="internal">
        <lane id=":1289222431_0_0" index="0" disallow="tram rail_urban rail rail_electric rail_fast ship" speed="11.18" length="5.03" shape="1633.57,1745.44 1629.13,1747.83"/>
        <lane id=":1289222431_0_1" index="1" disallow="tram rail_urban rail rail_electric rail_fast ship" speed="11.18" length="5.03" shape="1632.05,1742.63 1627.62,1745.01"/>
    </edge>
    <edge id=":1289222431_2" function="internal">
        <lane id=":1289222431_2_0" index="0" disallow="tram rail_urban rail rail_electric rail_fast ship" speed="3.65" length="4.67" shape="1632.05,1742.63 1630.61,1742.49 1629.88,1741.98 1629.85,1741.09 1630.52,1739.81"/>
    </edge>
    <edge id=":1289222431_3" function="internal">
        <lane id=":1289222431_3_0" index="0" disallow="tram rail_urban rail rail_electric rail_fast ship" speed="11.18" length="5.01" shape="1624.60,1739.37 1629.00,1737.00"/>
        <lane id=":1289222431_3_1" index="1" disallow="tram rail_urban rail rail_electric rail_fast ship" speed="11.18" length="5.01" shape="1626.11,1742.19 1630.52,1739.81"/>
    </edge>
    <edge id=":1289222431_5" function="internal">
        <lane id=":1289222431_5_0" index="0" disallow="tram rail_urban rail rail_electric rail_fast ship" speed="3.65" length="4.67" shape="1626.11,1742.19 1627.54,1742.33 1628.27,1742.84 1628.30,1743.74 1627.62,1745.01"/>
    </edge>
    <edge id=":1745856010_0" function="internal">
        <lane id=":1745856010_0_0" index="0" disallow="tram rail_urban rail rail_electric rail_fast ship" speed="11.18" length="5.00" shape="2036.46,2431.67 2040.86,2429.30"/>
    </edge>
    <edge id=":1745856081_0" function="internal">
        <lane id=":1745856081_0_0" index="0" disallow="tram rail_urban rail rail_electric rail_fast ship" speed="27.78" length="4.95" shape="2079.56,2501.05 2075.24,2503.42"/>
        <lane id=":1745856081_0_1" index="1" disallow="tram rail_urban rail rail_electric rail_fast ship" speed="27.78" length="4.95" shape="2078.04,2498.24 2073.68,2500.62"/>
    </edge>
    <edge id=":1745991208_0" function="internal">
        <lane id=":1745991208_0_0" index="0" disallow="tram rail_urban rail rail_electric rail_fast ship" speed="13.89" length="4.99" shape="2429.20,1859.38 2433.57,1856.96"/>
    </edge>
    <edge id=":1745991209_0" function="internal">
        <lane id=":1745991209_0_0" index="0" disallow="tram rail_urban rail rail_electric rail_fast ship" speed="27.78" length="4.99" shape="2471.11,1927.25 2466.73,1929.65"/>
    </edge>
    <edge id=":1745991210_0" function="internal">
        <lane id=":1745991210_0_0" index="0" disallow="tram rail_urban rail rail_electric rail_fast ship" speed="13.89" length="5.01" shape="1660.62,2273.63 1665.03,2271.25"/>
    </edge>
    <edge id=":1745991212_0" function="internal">
        <lane id=":1745991212_0_0" index="0" disallow="tram rail_urban rail rail_electric rail_fast ship" speed="27.78" length="5.02" shape="1702.73,2341.87 1698.31,2344.25"/>
    </edge>
    <edge id=":1745991214_0" function="internal">
        <lane id=":1745991214_0_0" index="0" disallow="tram rail_urban rail rail_electric rail_fast ship" speed="27.78" length="5.00" shape="1735.14,2413.80 1739.54,2411.44"/>
        <lane id=":1745991214_0_1" index="1" disallow="tram rail_urban rail rail_electric rail_fast ship" speed="27.78" length="5.00" shape="1736.65,2416.62 1741.05,2414.26"/>
    </edge>
    <edge id=":1752946324_0" function="internal">
        <lane id=":1752946324_0_0" index="0" disallow="tram rail_urban rail rail_electric rail_fast ship" speed="11.18" length="5.02" shape="1466.63,1835.49 1462.21,1837.85"/>
        <lane id=":1752946324_0_1" index="1" disallow="tram rail_urban rail rail_electric rail_fast ship" speed="11.18" length="5.02" shape="1465.13,1832.66 1460.70,1835.03"/>
    </edge>
    <edge id=":1752946324_2" function="internal">
        <lane id=":1752946324_2_0" index="0" disallow="tram rail_urban rail rail_electric rail_fast ship" speed="3.65" length="2.34" shape="1465.13,1832.66 1463.69,1832.52 1462.96,1832.00"/>
    </edge>
    <edge id=":1752946324_6" function="internal">
        <lane id=":1752946324_6_0" index="0" disallow="tram rail_urban rail rail_electric rail_fast ship" speed="3.65" length="2.34" shape="1462.96,1832.00 1462.94,1831.11 1463.62,1829.84"/>
    </edge>
    <edge id=":1752946324_3" function="internal">
        <lane id=":1752946324_3_0" index="0" disallow="tram rail_urban rail rail_electric rail_fast ship" speed="11.18" length="5.04" shape="1457.66,1829.40 1462.11,1827.02"/>
        <lane id=":1752946324_3_1" index="1" disallow="tram rail_urban rail rail_electric rail_fast ship" speed="11.18" length="5.04" shape="1459.18,1832.22 1463.62,1829.84"/>
    </edge>
    <edge id=":1752946324_5" function="internal">
        <lane id=":1752946324_5_0" index="0" disallow="tram rail_urban rail rail_electric rail_fast ship" speed="3.65" length="2.34" shape="1459.18,1832.22 1460.62,1832.35 1461.35,1832.87"/>
    </edge>
    <edge id=":1752946324_7" function="internal">
        <lane id=":1752946324_7_0" index="0" disallow="tram rail_urban rail rail_electric rail_fast ship" speed="3.65" length="2.34" shape="1461.35,1832.87 1461.37,1833.76 1460.70,1835.03"/>
    </edge>
    <edge id=":1752946328_0" function="internal">
        <lane id=":1752946328_0_0" index="0" disallow="tram rail_urban rail rail_electric rail_fast ship" speed="13.89" length="5.00" shape="1505.32,1906.30 1500.93,1908.67"/>
    </edge>
    <edge id=":1758380526_0" function="internal">
        <lane id=":1758380526_0_0" index="0" allow="pedestrian delivery bicycle" speed="6.09" length="7.76" shape="1471.69,2379.30 1471.39,2377.91 1471.98,2376.50 1473.43,2375.05 1475.77,2373.57"/>
    </edge>
    <edge id=":1758380526_1" function="internal">
        <lane id=":1758380526_1_0" index="0" allow="pedestrian delivery bicycle" speed="2.24" length="4.67" shape="1471.69,2379.30 1471.83,2377.87 1472.35,2377.14 1473.24,2377.11 1474.51,2377.80"/>
    </edge>
    <edge id=":1758380526_2" function="internal">
        <lane id=":1758380526_2_0" index="0" disallow="tram rail_urban rail rail_electric rail_fast ship" speed="13.89" length="9.40" shape="1467.49,2378.03 1475.77,2373.57"/>
    </edge>
    <edge id=":1758380526_3" function="internal">
        <lane id=":1758380526_3_0" index="0" allow="pedestrian delivery bicycle" speed="6.08" length="7.77" shape="1467.49,2378.03 1470.01,2376.89 1472.02,2376.48 1473.52,2376.78 1474.51,2377.80"/>
    </edge>
    <edge id=":1758380528_0" function="internal">
        <lane id=":1758380528_0_0" index="0" disallow="tram rail_urban rail rail_electric rail_fast ship" speed="27.78" length="9.40" shape="1513.52,2443.79 1505.24,2448.26"/>
    </edge>
    <edge id=":1758380528_1" function="internal">
        <lane id=":1758380528_1_0" index="0" allow="pedestrian delivery bicycle" speed="6.08" length="7.77" shape="1513.52,2443.79 1511.00,2444.94 1508.99,2445.36 1507.49,2445.06 1506.50,2444.05"/>
    </edge>
    <edge id=":1758380528_2" function="internal">
        <lane id=":1758380528_2_0" index="0" allow="pedestrian delivery bicycle" speed="6.09" length="7.76" shape="1509.32,2442.53 1509.61,2443.92 1509.03,2445.34 1507.58,2446.79 1505.24,2448.26"/>
    </edge>
    <edge id=":1758380528_3" function="internal">
        <lane id=":1758380528_3_0" index="0" allow="pedestrian delivery bicycle" speed="2.24" length="4.67" shape="1509.32,2442.53 1509.18,2443.97 1508.66,2444.70 1507.77,2444.73 1506.50,2444.05"/>
    </edge>
    <edge id=":1775176474_0" function="internal">
        <lane id=":1775176474_0_0" index="0" allow="private emergency authority army vip passenger hov taxi bus coach delivery truck trailer motorcycle evehicle custom1 custom2" speed="30.83" length="37.96" shape="3361.52,2427.14 3354.62,2432.35 3347.45,2439.64 3340.50,2447.26 3334.30,2453.47"/>
    </edge>
    <edge id=":1775176474_1" function="internal">
        <lane id=":1775176474_1_0" index="0" allow="private emergency authority army vip passenger hov taxi bus coach delivery truck trailer motorcycle evehicle custom1 custom2" speed="30.83" length="38.22" shape="3361.52,2427.14 3354.26,2432.01 3346.27,2438.54 3338.52,2445.40 3331.95,2451.27"/>
    </edge>
    <edge id=":1775176474_2" function="internal">
        <lane id=":1775176474_2_0" index="0" allow="private emergency authority army vip passenger hov taxi bus coach delivery truck trailer motorcycle evehicle custom1 custom2" speed="30.83" length="43.26" shape="3361.52,2427.14 3325.38,2450.74"/>
        <lane id=":1775176474_2_1" index="1" allow="private emergency authority army vip passenger hov taxi bus coach delivery truck trailer motorcycle evehicle custom1 custom2" speed="30.83" length="43.26" shape="3359.98,2424.33 3323.72,2448.00"/>
        <lane id=":1775176474_2_2" index="2" allow="private emergency authority army vip passenger hov taxi bus coach delivery truck trailer motorcycle evehicle custom1 custom2" speed="30.83" length="43.26" shape="3359.98,2424.33 3322.06,2445.27"/>
    </edge>
    <edge id=":1775201764_0" function="internal">
        <lane id=":1775201764_0_0" index="0" allow="private emergency authority army vip passenger hov taxi bus coach delivery truck trailer motorcycle evehicle custom1 custom2" speed="6.53" length="10.63" shape="3369.46,2443.85 3370.69,2446.74 3372.42,2448.36 3374.64,2448.69 3377.36,2447.74"/>
    </edge>
    <edge id=":1775201764_1" function="internal">
        <lane id=":1775201764_1_0" index="0" allow="private emergency authority army vip passenger hov taxi bus coach delivery truck trailer motorcycle evehicle custom1 custom2" speed="25.00" length="14.36" shape="3369.46,2443.85 3370.69,2447.27 3372.26,2450.42 3374.04,2453.48 3375.89,2456.64"/>
    </edge>
    <edge id=":1775201764_2" function="internal">
        <lane id=":1775201764_2_0" index="0" allow="bus" speed="7.83" length="11.38" shape="3369.46,2443.85 3370.28,2447.75 3370.34,2450.80 3369.64,2453.02 3368.18,2454.40"/>
    </edge>
    <edge id=":1775201764_3" function="internal">
        <lane id=":1775201764_3_0" index="0" disallow="tram rail_urban rail rail_electric rail_fast ship" speed="20.84" length="11.35" shape="3366.70,2451.56 3369.62,2450.32 3372.04,2449.67 3374.46,2449.01 3377.36,2447.74"/>
    </edge>
    <edge id=":1775201764_4" function="internal">
        <lane id=":1775201764_4_0" index="0" disallow="tram rail_urban rail rail_electric rail_fast ship" speed="7.41" length="11.73" shape="3366.70,2451.56 3369.12,2450.92 3371.45,2451.55 3373.71,2453.46 3375.89,2456.64"/>
    </edge>
    <edge id=":1775201764_5" function="internal">
        <lane id=":1775201764_5_0" index="0" allow="bus bicycle" speed="3.65" length="4.67" shape="3366.70,2451.56 3368.13,2451.72 3368.86,2452.24 3368.87,2453.14 3368.18,2454.40"/>
    </edge>
    <edge id=":1828749423_0" function="internal">
        <lane id=":1828749423_0_0" index="0" disallow="tram rail_urban rail rail_electric rail_fast ship" speed="13.89" length="7.02" shape="1934.75,2757.94 1928.56,2761.26"/>
    </edge>
    <edge id=":1828749426_0" function="internal">
        <lane id=":1828749426_0_0" index="0" disallow="tram rail_urban rail rail_electric rail_fast ship" speed="11.18" length="7.08" shape="1821.91,2547.38 1828.14,2544.02"/>
    </edge>
    <edge id=":1828749427_0" function="internal">
        <lane id=":1828749427_0_0" index="0" disallow="tram rail_urban rail rail_electric rail_fast ship" speed="27.78" length="7.41" shape="1866.90,2615.18 1860.37,2618.74"/>
        <lane id=":1828749427_0_1" index="1" disallow="tram rail_urban rail rail_electric rail_fast ship" speed="27.78" length="7.41" shape="1865.35,2612.38 1858.85,2615.93"/>
    </edge>
    <edge id=":1828749428_0" function="internal">
        <lane id=":1828749428_0_0" index="0" disallow="tram rail_urban rail rail_electric rail_fast ship" speed="13.89" length="6.99" shape="1790.50,2476.03 1784.33,2479.31"/>
    </edge>
    <edge id=":1912138142_0" function="internal">
        <lane id=":1912138142_0_0" index="0" allow="rail rail_electric rail_fast" speed="4.47" length="65.03" shape="2351.91,1842.96 2356.73,1853.47 2365.73,1872.39 2374.83,1891.26 2379.97,1901.62"/>
    </edge>
    <edge id=":1912138142_1" function="internal">
        <lane id=":1912138142_1_0" index="0" allow="rail" speed="4.47" length="65.14" shape="2351.91,1842.96 2376.97,1903.09"/>
    </edge>
    <edge id=":1912138142_2" function="internal">
        <lane id=":1912138142_2_0" index="0" allow="rail rail_electric rail_fast" speed="4.47" length="65.15" shape="2348.86,1844.38 2379.97,1901.62"/>
    </edge>
    <edge id=":1912138142_3" function="internal">
        <lane id=":1912138142_3_0" index="0" allow="rail" speed="4.47" length="65.09" shape="2348.86,1844.38 2376.97,1903.09"/>
    </edge>
    <edge id=":2024979388_0" function="internal">
        <lane id=":2024979388_0_0" index="0" allow="rail_urban" speed="27.78" length="5.84" shape="2952.21,2648.66 2954.98,2653.81"/>
    </edge>
    <edge id=":2165157806_0" function="internal">
        <lane id=":2165157806_0_0" index="0" disallow="tram rail_urban rail rail_electric rail_fast ship" speed="13.89" length="5.01" shape="2957.56,2492.24 2961.98,2489.86"/>
        <lane id=":2165157806_0_1" index="1" disallow="tram rail_urban rail rail_electric rail_fast ship" speed="13.89" length="5.01" shape="2959.08,2495.05 2963.49,2492.68"/>
    </edge>
    <edge id=":2165157809_0" function="internal">
        <lane id=":2165157809_0_0" index="0" disallow="tram rail_urban rail rail_electric rail_fast ship" speed="27.78" length="5.00" shape="2994.41,2563.36 2998.81,2560.99"/>
    </edge>
    <edge id=":2176936521_0" function="internal">
        <lane id=":2176936521_0_0" index="0" disallow="tram rail_urban rail rail_electric rail_fast ship" speed="27.78" length="5.00" shape="1790.83,1933.14 1786.44,1935.52"/>
    </edge>
    <edge id=":2176936535_0" function="internal">
        <lane id=":2176936535_0_0" index="0" disallow="tram rail_urban rail rail_electric rail_fast ship" speed="27.78" length="5.00" shape="1822.72,2005.44 1827.12,2003.06"/>
    </edge>
    <edge id=":2351527463_0" function="internal">
        <lane id=":2351527463_0_0" index="0" allow="bicycle" speed="8.33" length="6.21" width="1.00" shape="759.49,1941.29 756.54,1935.83"/>
    </edge>
    <edge id=":2351527463_1" function="internal">
        <lane id=":2351527463_1_0" index="0" allow="bicycle" speed="4.23" length="3.23" width="1.00" shape="759.24,1936.65 758.41,1936.95 757.68,1936.92 757.06,1936.54 756.54,1935.83"/>
    </edge>
    <edge id=":2351527466_0" function="internal">
        <lane id=":2351527466_0_0" index="0" allow="bicycle" speed="8.33" length="6.22" width="1.00" shape="722.63,1871.06 719.79,1865.52"/>
    </edge>
    <edge id=":2351527466_1" function="internal">
        <lane id=":2351527466_1_0" index="0" allow="bicycle" speed="4.89" length="5.17" shape="722.63,1871.06 721.93,1869.34 721.67,1867.98 721.86,1866.97 722.50,1866.33"/>
    </edge>
    <edge id=":2351527466_2" function="internal">
        <lane id=":2351527466_2_0" index="0" allow="bicycle" speed="4.27" length="3.29" width="1.00" shape="718.92,1868.27 719.66,1867.73 720.05,1867.09 720.09,1866.35 719.79,1865.52"/>
    </edge>
    <edge id=":2351527466_3" function="internal">
        <lane id=":2351527466_3_0" index="0" disallow="tram rail_urban rail rail_electric rail_fast ship" speed="13.89" length="4.07" shape="719.44,1869.24 723.02,1867.30"/>
    </edge>
    <edge id=":2351532363_0" function="internal">
        <lane id=":2351532363_0_0" index="0" allow="bicycle" speed="3.82" length="3.22" shape="1293.11,2928.74 1292.58,2928.03 1291.95,2927.66 1291.22,2927.65 1290.40,2927.99"/>
    </edge>
    <edge id=":2351532363_1" function="internal">
        <lane id=":2351532363_1_0" index="0" allow="bicycle" speed="8.33" length="9.42" width="1.00" shape="1293.11,2928.74 1288.60,2920.47"/>
    </edge>
    <edge id=":2351532363_2" function="internal">
        <lane id=":2351532363_2_0" index="0" disallow="tram rail_urban rail rail_electric rail_fast ship" speed="27.78" length="4.11" shape="1293.37,2925.04 1289.85,2927.04"/>
        <lane id=":2351532363_2_1" index="1" disallow="tram rail_urban rail rail_electric rail_fast ship" speed="27.78" length="4.11" shape="1291.84,2922.23 1288.22,2924.28"/>
    </edge>
    <edge id=":2351532363_4" function="internal">
        <lane id=":2351532363_4_0" index="0" allow="bicycle" speed="4.24" length="3.23" width="1.00" shape="1291.32,2921.26 1290.49,2921.57 1289.76,2921.54 1289.13,2921.17 1288.60,2920.47"/>
    </edge>
    <edge id=":2351532367_0" function="internal">
        <lane id=":2351532367_0_0" index="0" allow="bicycle" speed="3.63" length="2.77" shape="1215.68,2788.18 1215.18,2787.45 1214.64,2787.03 1214.08,2786.90 1213.48,2787.08"/>
    </edge>
    <edge id=":2351532367_1" function="internal">
        <lane id=":2351532367_1_0" index="0" allow="bicycle" speed="8.33" length="6.21" width="1.00" shape="1215.68,2788.18 1212.69,2782.74"/>
    </edge>
    <edge id=":2351532367_2" function="internal">
        <lane id=":2351532367_2_0" index="0" disallow="tram rail_urban rail rail_electric rail_fast ship" speed="13.89" length="3.40" shape="1215.95,2784.50 1212.96,2786.11"/>
    </edge>
    <edge id=":2351532367_3" function="internal">
        <lane id=":2351532367_3_0" index="0" allow="bicycle" speed="4.25" length="3.25" width="1.00" shape="1215.43,2783.53 1214.59,2783.85 1213.85,2783.82 1213.22,2783.45 1212.69,2782.74"/>
    </edge>
    <edge id=":2351532375_0" function="internal">
        <lane id=":2351532375_0_0" index="0" allow="bicycle" speed="8.33" length="6.23" width="1.00" shape="1028.32,2438.89 1025.37,2433.41"/>
    </edge>
    <edge id=":2351532375_1" function="internal">
        <lane id=":2351532375_1_0" index="0" allow="bicycle" speed="4.81" length="5.12" shape="1028.32,2438.89 1027.58,2437.21 1027.29,2435.87 1027.47,2434.88 1028.11,2434.23"/>
    </edge>
    <edge id=":2351532375_2" function="internal">
        <lane id=":2351532375_2_0" index="0" allow="bicycle" speed="4.03" length="2.94" width="1.00" shape="1024.84,2435.90 1025.44,2435.48 1025.73,2434.92 1025.70,2434.23 1025.37,2433.41"/>
    </edge>
    <edge id=":2351532375_3" function="internal">
        <lane id=":2351532375_3_0" index="0" disallow="tram rail_urban rail rail_electric rail_fast ship" speed="27.78" length="3.73" shape="1025.31,2436.90 1028.63,2435.20"/>
    </edge>
    <edge id=":2351532377_0" function="internal">
        <lane id=":2351532377_0_0" index="0" allow="bicycle" speed="3.92" length="3.28" shape="1367.45,3066.68 1366.93,3065.97 1366.29,3065.59 1365.54,3065.55 1364.69,3065.85"/>
    </edge>
    <edge id=":2351532377_1" function="internal">
        <lane id=":2351532377_1_0" index="0" allow="bicycle" speed="8.33" length="6.21" width="1.00" shape="1367.45,3066.68 1364.53,3061.21"/>
    </edge>
    <edge id=":2351532377_2" function="internal">
        <lane id=":2351532377_2_0" index="0" disallow="tram rail_urban rail rail_electric rail_fast ship" speed="13.89" length="4.04" shape="1367.76,3063.00 1364.19,3064.87"/>
    </edge>
    <edge id=":2351532377_3" function="internal">
        <lane id=":2351532377_3_0" index="0" allow="bicycle" speed="4.24" length="3.23" width="1.00" shape="1367.24,3062.03 1366.41,3062.33 1365.68,3062.30 1365.06,3061.92 1364.53,3061.21"/>
    </edge>
    <edge id=":2351532384_0" function="internal">
        <lane id=":2351532384_0_0" index="0" allow="bicycle" speed="8.33" length="9.43" width="1.00" shape="1405.90,3139.16 1401.51,3130.81"/>
    </edge>
    <edge id=":2351532384_1" function="internal">
        <lane id=":2351532384_1_0" index="0" allow="bicycle" speed="4.90" length="5.25" shape="1405.90,3139.16 1405.16,3137.46 1404.89,3136.09 1405.10,3135.07 1405.78,3134.39"/>
    </edge>
    <edge id=":2351532384_2" function="internal">
        <lane id=":2351532384_2_0" index="0" allow="bicycle" speed="4.34" length="3.38" width="1.00" shape="1400.57,3133.64 1401.34,3133.07 1401.75,3132.41 1401.80,3131.65 1401.51,3130.81"/>
    </edge>
    <edge id=":2351532384_3" function="internal">
        <lane id=":2351532384_3_0" index="0" disallow="tram rail_urban rail rail_electric rail_fast ship" speed="13.89" length="4.17" shape="1401.11,3134.60 1404.75,3132.56"/>
        <lane id=":2351532384_3_1" index="1" disallow="tram rail_urban rail rail_electric rail_fast ship" speed="13.89" length="4.17" shape="1402.67,3137.39 1406.32,3135.35"/>
    </edge>
    <edge id=":2351532388_0" function="internal">
        <lane id=":2351532388_0_0" index="0" allow="bicycle" speed="8.33" length="6.19" width="1.00" shape="796.80,2008.99 793.86,2003.55"/>
    </edge>
    <edge id=":2351532388_1" function="internal">
        <lane id=":2351532388_1_0" index="0" allow="bicycle" speed="4.79" length="5.12" shape="796.80,2008.99 796.05,2007.31 795.76,2005.98 795.94,2004.99 796.58,2004.34"/>
    </edge>
    <edge id=":2435108434_0" function="internal">
        <lane id=":2435108434_0_0" index="0" disallow="tram rail_urban rail rail_electric rail_fast ship" speed="27.78" length="5.35" shape="1469.03,2196.72 1473.72,2194.16"/>
    </edge>
    <edge id=":2639531766_0" function="internal">
        <lane id=":2639531766_0_0" index="0" allow="pedestrian delivery bicycle" speed="5.01" length="5.03" shape="1317.37,2275.05 1318.16,2276.19 1319.12,2276.79 1320.25,2276.85 1321.55,2276.38"/>
    </edge>
    <edge id=":2639531766_1" function="internal">
        <lane id=":2639531766_1_0" index="0" allow="pedestrian delivery bicycle" speed="3.65" length="4.67" shape="1317.37,2275.05 1317.19,2276.49 1316.65,2277.20 1315.76,2277.20 1314.51,2276.49"/>
    </edge>
    <edge id=":2639531766_2" function="internal">
        <lane id=":2639531766_2_0" index="0" allow="pedestrian delivery bicycle" speed="5.14" length="5.12" shape="1313.28,2280.84 1314.36,2280.02 1314.93,2279.03 1314.97,2277.85 1314.51,2276.49"/>
    </edge>
    <edge id=":2639531766_3" function="internal">
        <lane id=":2639531766_3_0" index="0" disallow="tram rail_urban rail rail_electric rail_fast ship" speed="27.78" length="9.40" shape="1313.28,2280.84 1321.55,2276.38"/>
    </edge>
    <edge id=":2682336471_0" function="internal">
        <lane id=":2682336471_0_0" index="0" disallow="tram rail_urban rail rail_electric rail_fast ship" speed="27.78" length="5.00" shape="1274.22,2572.74 1269.82,2575.11"/>
    </edge>
    <edge id=":2682336481_0" function="internal">
        <lane id=":2682336481_0_0" index="0" disallow="tram rail_urban rail rail_electric rail_fast ship" speed="27.78" length="5.00" shape="1245.13,2588.42 1240.73,2590.79"/>
    </edge>
    <edge id=":2682336531_0" function="internal">
        <lane id=":2682336531_0_0" index="0" disallow="tram rail_urban rail rail_electric rail_fast ship" speed="27.78" length="5.00" shape="1307.38,2643.73 1311.78,2641.36"/>
        <lane id=":2682336531_0_1" index="1" disallow="tram rail_urban rail rail_electric rail_fast ship" speed="27.78" length="5.00" shape="1308.90,2646.55 1313.30,2644.18"/>
    </edge>
    <edge id=":2682336534_0" function="internal">
        <lane id=":2682336534_0_0" index="0" disallow="tram rail_urban rail rail_electric rail_fast ship" speed="27.78" length="5.00" shape="1278.28,2659.41 1282.68,2657.04"/>
        <lane id=":2682336534_0_1" index="1" disallow="tram rail_urban rail rail_electric rail_fast ship" speed="27.78" length="5.00" shape="1279.79,2662.23 1284.19,2659.86"/>
    </edge>
    <edge id=":2709968341_0" function="internal">
        <lane id=":2709968341_0_0" index="0" allow="bicycle" speed="8.33" length="6.21" width="1.00" shape="1254.40,2857.71 1251.41,2852.27"/>
    </edge>
    <edge id=":2709968341_1" function="internal">