<routes>
    <vType id="normal_car" vClass="passenger" maxSpeed="40" speedFactor="0.9" speedDev="0.2" sigma="0.5" />
    <vType id="sporty_car" vClass="passenger" maxSpeed="60" speedFactor="1.3" speedDev="0.1" sigma="0.1" />
    <vType id="trailer" vClass="trailer"  maxSpeed="30" speedFactor="1.1" speedDev="0.1" />
    <vType id="coach" vClass="coach"  maxSpeed="30" speedFactor="1." speedDev="0.1" color= "0,0,1" />
    <flow id="normal" type="normal_car" begin="0" end="3" number="5" from="entry" to="longEdge" departPos="last" departLane="best" />
    <flow id="sporty" type="sporty_car" begin="0" end="3" number="1" from="entry" to="longEdge" departPos="last" departLane="best" />
    <flow id="coach" type="coach" begin="0" end="3" number="1" from="entry" to="longEdge" departPos="last" departLane="best" />
    <flow id="trailer" type="trailer" begin="10" end="20" number="1" from="entry" to="longEdge" departPos="last" departLane="best" />
</routes>