<?xml version="1.0" encoding="UTF-8"?>

<!-- generated on 2019年12月12日 19時37分36秒 by Eclipse SUMO netedit Version 1.3.1
<configuration xmlns:xsi="http://www.w3.org/2001/XMLSchema-instance" xsi:noNamespaceSchemaLocation="http://sumo.dlr.de/xsd/netconvertConfiguration.xsd">

    <output>
        <output-file value="/home/shuto/sumo/tools/autobahn/autobahn.net.xml"/>
        <output.street-names value="true"/>
    </output>

    <processing>
        <offset.disable-normalization value="true"/>
    </processing>

    <junctions>
        <no-turnarounds value="true"/>
    </junctions>

</configuration>
-->

<net version="1.3" junctionCornerDetail="5" limitTurnSpeed="5.50" xmlns:xsi="http://www.w3.org/2001/XMLSchema-instance" xsi:noNamespaceSchemaLocation="http://sumo.dlr.de/xsd/net_file.xsd">

    <location netOffset="0.00,0.00" convBoundary="-530.11,-191.04,667.89,340.51" origBoundary="10000000000.00,10000000000.00,-10000000000.00,-10000000000.00" projParameter="!"/>

    <edge id=":gneJ19_0" function="internal">
        <lane id=":gneJ19_0_0" index="0" speed="36.11" length="3.00" shape="-339.41,-115.18 -336.67,-113.96"/>
        <lane id=":gneJ19_0_1" index="1" speed="36.11" length="3.00" shape="-340.71,-112.25 -337.97,-111.04"/>
        <lane id=":gneJ19_0_2" index="2" speed="36.11" length="3.00" shape="-342.01,-109.33 -339.27,-108.11"/>
    </edge>
    <edge id=":gneJ20_0" function="internal">
        <lane id=":gneJ20_0_0" index="0" speed="36.11" length="3.00" shape="-154.63,-33.19 -151.88,-31.97"/>
        <lane id=":gneJ20_0_1" index="1" speed="36.11" length="3.00" shape="-155.92,-30.27 -153.18,-29.05"/>
        <lane id=":gneJ20_0_2" index="2" speed="36.11" length="3.00" shape="-157.22,-27.34 -154.48,-26.12"/>
    </edge>
    <edge id=":gneJ21_0" function="internal">
        <lane id=":gneJ21_0_0" index="0" speed="36.11" length="3.00" shape="25.41,46.69 28.15,47.91"/>
        <lane id=":gneJ21_0_1" index="1" speed="36.11" length="3.00" shape="24.11,49.62 26.86,50.83"/>
        <lane id=":gneJ21_0_2" index="2" speed="36.11" length="3.00" shape="22.82,52.54 25.56,53.76"/>
    </edge>
    <edge id=":gneJ22_0" function="internal">
        <lane id=":gneJ22_0_0" index="0" speed="36.11" length="0.10" shape="216.18,131.33 216.18,131.33"/>
        <lane id=":gneJ22_0_1" index="1" speed="36.11" length="0.10" shape="214.88,134.26 214.88,134.26"/>
        <lane id=":gneJ22_0_2" index="2" speed="36.11" length="0.10" shape="213.59,137.18 213.59,137.18"/>
    </edge>
    <edge id=":gneJ23_0" function="internal">
        <lane id=":gneJ23_0_0" index="0" speed="36.11" length="0.10" shape="418.56,221.13 418.56,221.13"/>
        <lane id=":gneJ23_0_1" index="1" speed="36.11" length="0.10" shape="417.26,224.05 417.26,224.05"/>
        <lane id=":gneJ23_0_2" index="2" speed="36.11" length="0.10" shape="415.96,226.98 415.96,226.98"/>
    </edge>

    <edge id="entry" from="gneJ15" to="gneJ19" name="entry" priority="-1">
        <lane id="entry_0" index="0" speed="36.11" length="205.08" shape="-526.87,-198.35 -339.41,-115.18"/>
        <lane id="entry_1" index="1" speed="36.11" length="205.08" shape="-528.17,-195.43 -340.71,-112.25"/>
        <lane id="entry_2" index="2" speed="36.11" length="205.08" shape="-529.46,-192.50 -342.01,-109.33"/>
    </edge>
    <edge id="exit" from="gneJ19" to="gneJ20" name="second" priority="-1">
        <lane id="exit_0" index="0" speed="36.11" length="199.16" shape="-336.67,-113.96 -154.63,-33.19"/>
        <lane id="exit_1" index="1" speed="36.11" length="199.16" shape="-337.97,-111.04 -155.92,-30.27"/>
        <lane id="exit_2" index="2" speed="36.11" length="199.16" shape="-339.27,-108.11 -157.22,-27.34"/>
    </edge>
    <edge id="gneE9.407" from="gneJ20" to="gneJ21" name="third" priority="-1">
        <lane id="gneE9.407_0" index="0" speed="36.11" length="193.96" shape="-151.88,-31.97 25.41,46.69"/>
        <lane id="gneE9.407_1" index="1" speed="36.11" length="193.96" shape="-153.18,-29.05 24.11,49.62"/>
        <lane id="gneE9.407_2" index="2" speed="36.11" length="193.96" shape="-154.48,-26.12 22.82,52.54"/>
    </edge>
    <edge id="gneE9.603" from="gneJ21" to="gneJ22" name="forth" priority="-1">
        <lane id="gneE9.603_0" index="0" speed="36.11" length="205.71" shape="28.15,47.91 216.18,131.33"/>
        <lane id="gneE9.603_1" index="1" speed="36.11" length="205.71" shape="26.86,50.83 214.88,134.26"/>
        <lane id="gneE9.603_2" index="2" speed="36.11" length="205.71" shape="25.56,53.76 213.59,137.18"/>
    </edge>
    <edge id="gneE9.811" from="gneJ22" to="gneJ23" name="fifth" priority="-1">
        <lane id="gneE9.811_0" index="0" speed="36.11" length="221.40" shape="216.18,131.33 418.56,221.13"/>
        <lane id="gneE9.811_1" index="1" speed="36.11" length="221.40" shape="214.88,134.26 417.26,224.05"/>
        <lane id="gneE9.811_2" index="2" speed="36.11" length="221.40" shape="213.59,137.18 415.96,226.98"/>
    </edge>
    <edge id="longEdge" from="gneJ23" to="gneJ16" name="longEdge" priority="-1">
        <lane id="longEdge_0" index="0" speed="36.11" length="276.32" shape="418.56,221.13 671.13,333.19"/>
        <lane id="longEdge_1" index="1" speed="36.11" length="276.32" shape="417.26,224.05 669.83,336.12"/>
        <lane id="longEdge_2" index="2" speed="36.11" length="276.32" shape="415.96,226.98 668.54,339.04"/>
    </edge>

    <junction id="gneJ15" type="dead_end" x="-530.11" y="-191.04" incLanes="" intLanes="" shape="-530.11,-191.04 -526.22,-199.81"/>
    <junction id="gneJ16" type="dead_end" x="667.89" y="340.51" incLanes="longEdge_0 longEdge_1 longEdge_2" intLanes="" shape="671.78,331.73 667.89,340.51"/>
    <junction id="gneJ19" type="priority" x="-339.92" y="-106.65" incLanes="entry_0 entry_1 entry_2" intLanes=":gneJ19_0_0 :gneJ19_0_1 :gneJ19_0_2" shape="-339.92,-106.65 -336.02,-115.42 -338.76,-116.64 -342.66,-107.87">
        <request index="0" response="000" foes="000" cont="0"/>
        <request index="1" response="000" foes="000" cont="0"/>
        <request index="2" response="000" foes="000" cont="0"/>
    </junction>
    <junction id="gneJ20" type="priority" x="-157.87" y="-25.88" incLanes="exit_0 exit_1 exit_2" intLanes=":gneJ20_0_0 :gneJ20_0_1 :gneJ20_0_2" shape="-155.13,-24.66 -151.23,-33.44 -153.98,-34.65 -157.87,-25.88">
        <request index="0" response="000" foes="000" cont="0"/>
        <request index="1" response="000" foes="000" cont="0"/>
        <request index="2" response="000" foes="000" cont="0"/>
    </junction>
    <junction id="gneJ21" type="priority" x="22.17" y="54.00" incLanes="gneE9.407_0 gneE9.407_1 gneE9.407_2" intLanes=":gneJ21_0_0 :gneJ21_0_1 :gneJ21_0_2" shape="24.91,55.22 28.80,46.45 26.06,45.23 22.17,54.00">
        <request index="0" response="000" foes="000" cont="0"/>
        <request index="1" response="000" foes="000" cont="0"/>
        <request index="2" response="000" foes="000" cont="0"/>
    </junction>
    <junction id="gneJ22" type="priority" x="212.94" y="138.65" incLanes="gneE9.603_0 gneE9.603_1 gneE9.603_2" intLanes=":gneJ22_0_0 :gneJ22_0_1 :gneJ22_0_2" shape="212.94,138.65 216.83,129.87 212.94,138.65">
        <request index="0" response="000" foes="000" cont="0"/>
        <request index="1" response="000" foes="000" cont="0"/>
        <request index="2" response="000" foes="000" cont="0"/>
    </junction>
    <junction id="gneJ23" type="priority" x="415.31" y="228.44" incLanes="gneE9.811_0 gneE9.811_1 gneE9.811_2" intLanes=":gneJ23_0_0 :gneJ23_0_1 :gneJ23_0_2" shape="415.31,228.44 419.21,219.67 415.31,228.44">
        <request index="0" response="000" foes="000" cont="0"/>
        <request index="1" response="000" foes="000" cont="0"/>
        <request index="2" response="000" foes="000" cont="0"/>
    </junction>

    <connection from="entry" to="exit" fromLane="0" toLane="0" via=":gneJ19_0_0" dir="s" state="M"/>
    <connection from="entry" to="exit" fromLane="1" toLane="1" via=":gneJ19_0_1" dir="s" state="M"/>
    <connection from="entry" to="exit" fromLane="2" toLane="2" via=":gneJ19_0_2" dir="s" state="M"/>
    <connection from="exit" to="gneE9.407" fromLane="0" toLane="0" via=":gneJ20_0_0" dir="s" state="M"/>
    <connection from="exit" to="gneE9.407" fromLane="1" toLane="1" via=":gneJ20_0_1" dir="s" state="M"/>
    <connection from="exit" to="gneE9.407" fromLane="2" toLane="2" via=":gneJ20_0_2" dir="s" state="M"/>
    <connection from="gneE9.407" to="gneE9.603" fromLane="0" toLane="0" via=":gneJ21_0_0" dir="s" state="M"/>
    <connection from="gneE9.407" to="gneE9.603" fromLane="1" toLane="1" via=":gneJ21_0_1" dir="s" state="M"/>
    <connection from="gneE9.407" to="gneE9.603" fromLane="2" toLane="2" via=":gneJ21_0_2" dir="s" state="M"/>
    <connection from="gneE9.603" to="gneE9.811" fromLane="0" toLane="0" via=":gneJ22_0_0" dir="s" state="M"/>
    <connection from="gneE9.603" to="gneE9.811" fromLane="1" toLane="1" via=":gneJ22_0_1" dir="s" state="M"/>
    <connection from="gneE9.603" to="gneE9.811" fromLane="2" toLane="2" via=":gneJ22_0_2" dir="s" state="M"/>
    <connection from="gneE9.811" to="longEdge" fromLane="0" toLane="0" via=":gneJ23_0_0" dir="s" state="M"/>
    <connection from="gneE9.811" to="longEdge" fromLane="1" toLane="1" via=":gneJ23_0_1" dir="s" state="M"/>
    <connection from="gneE9.811" to="longEdge" fromLane="2" toLane="2" via=":gneJ23_0_2" dir="s" state="M"/>

    <connection from=":gneJ19_0" to="exit" fromLane="0" toLane="0" dir="s" state="M"/>
    <connection from=":gneJ19_0" to="exit" fromLane="1" toLane="1" dir="s" state="M"/>
    <connection from=":gneJ19_0" to="exit" fromLane="2" toLane="2" dir="s" state="M"/>
    <connection from=":gneJ20_0" to="gneE9.407" fromLane="0" toLane="0" dir="s" state="M"/>
    <connection from=":gneJ20_0" to="gneE9.407" fromLane="1" toLane="1" dir="s" state="M"/>
    <connection from=":gneJ20_0" to="gneE9.407" fromLane="2" toLane="2" dir="s" state="M"/>
    <connection from=":gneJ21_0" to="gneE9.603" fromLane="0" toLane="0" dir="s" state="M"/>
    <connection from=":gneJ21_0" to="gneE9.603" fromLane="1" toLane="1" dir="s" state="M"/>
    <connection from=":gneJ21_0" to="gneE9.603" fromLane="2" toLane="2" dir="s" state="M"/>
    <connection from=":gneJ22_0" to="gneE9.811" fromLane="0" toLane="0" dir="s" state="M"/>
    <connection from=":gneJ22_0" to="gneE9.811" fromLane="1" toLane="1" dir="s" state="M"/>
    <connection from=":gneJ22_0" to="gneE9.811" fromLane="2" toLane="2" dir="s" state="M"/>
    <connection from=":gneJ23_0" to="longEdge" fromLane="0" toLane="0" dir="s" state="M"/>
    <connection from=":gneJ23_0" to="longEdge" fromLane="1" toLane="1" dir="s" state="M"/>
    <connection from=":gneJ23_0" to="longEdge" fromLane="2" toLane="2" dir="s" state="M"/>

</net>
