<?xml version="1.0" encoding="UTF-8"?>

<!-- generated on 03/24/21 13:00:35 by Eclipse SUMO duarouter Version 1.8.0
<configuration xmlns:xsi="http://www.w3.org/2001/XMLSchema-instance" xsi:noNamespaceSchemaLocation="http://sumo.dlr.de/xsd/duarouterConfiguration.xsd">

    <input>
        <net-file value="no_signal/original_net.xml"/>
        <route-files value="no_signal/original_trip.xml"/>
    </input>

    <output>
        <output-file value="no_signal/original_route.xml"/>
        <alternatives-output value="no_signal/original_route.alt.xml"/>
    </output>

    <time>
        <end value="150"/>
    </time>

</configuration>
-->

<routes xmlns:xsi="http://www.w3.org/2001/XMLSchema-instance" xsi:noNamespaceSchemaLocation="http://sumo.dlr.de/xsd/routes_file.xsd">
    <vehicle id="0" depart="0.00">
        <route edges="C2C1 C1C2 C2C3 C3C4 C4C5 C5D5 D5E5 E5D5"/>
    </vehicle>
    <vehicle id="1" depart="0.01">
        <route edges="F5E5 E5E4 E4E3 E3F3"/>
    </vehicle>
    <vehicle id="2" depart="0.01">
        <route edges="B2C2 C2C1 C1C0"/>
    </vehicle>
    <vehicle id="3" depart="0.01">
        <route edges="A1B1 B1C1 C1C2 C2C3 C3C4"/>
    </vehicle>
    <vehicle id="4" depart="0.02">
        <route edges="A2A1 A1A0 A0B0 B0B1"/>
    </vehicle>
    <vehicle id="5" depart="0.03">
        <route edges="F0E0 E0E1 E1E2 E2E3 E3F3 F3F2"/>
    </vehicle>
    <vehicle id="6" depart="0.03">
        <route edges="F1F0 F0E0 E0E1 E1E2 E2E3 E3E4 E4E3"/>
    </vehicle>
    <vehicle id="7" depart="0.04">
        <route edges="B2A2 A2B2 B2B1 B1A1"/>
    </vehicle>
    <vehicle id="8" depart="0.04">
        <route edges="A5A4"/>
    </vehicle>
    <vehicle id="9" depart="0.04">
        <route edges="B0B1 B1B2 B2B3 B3B4 B4A4 A4A3"/>
    </vehicle>
    <vehicle id="10" depart="0.05">
        <route edges="A4A3 A3A2 A2A1 A1A0"/>
    </vehicle>
    <vehicle id="11" depart="0.05">
        <route edges="D4E4 E4E3 E3F3"/>
    </vehicle>
    <vehicle id="12" depart="0.06">
        <route edges="B2B1 B1C1 C1D1"/>
    </vehicle>
    <vehicle id="13" depart="0.06">
        <route edges="D4D3 D3E3 E3F3 F3E3"/>
    </vehicle>
    <vehicle id="14" depart="0.07">
        <route edges="E0F0 F0F1 F1F2 F2F3 F3F4 F4F5 F5E5 E5D5 D5C5 C5B5 B5A5 A5A4"/>
    </vehicle>
    <vehicle id="15" depart="0.07">
        <route edges="A5B5 B5C5 C5D5 D5E5 E5E4 E4E3 E3E2 E2E1 E1F1"/>
    </vehicle>
    <vehicle id="16" depart="0.08">
        <route edges="D4C4 C4D4 D4D3 D3E3"/>
    </vehicle>
    <vehicle id="17" depart="0.09">
        <route edges="D2E2 E2D2 D2D1"/>
    </vehicle>
    <vehicle id="18" depart="0.09">
        <route edges="E2E1 E1E0 E0D0 D0D1"/>
    </vehicle>
    <vehicle id="19" depart="0.10">
        <route edges="C5D5 D5D4 D4D3 D3D2 D2D1 D1D0 D0C0"/>
    </vehicle>
    <vehicle id="20" depart="0.10">
        <route edges="E0D0 D0E0 E0E1"/>
    </vehicle>
    <vehicle id="21" depart="0.11">
        <route edges="D2D1 D1E1"/>
    </vehicle>
    <vehicle id="22" depart="0.11">
        <route edges="C0C1 C1D1 D1E1 E1E2 E2E3 E3E4"/>
    </vehicle>
    <vehicle id="23" depart="0.12">
        <route edges="D1C1 C1C2 C2C1"/>
    </vehicle>
    <vehicle id="24" depart="0.12">
        <route edges="A3A2 A2B2 B2C2 C2B2"/>
    </vehicle>
    <vehicle id="25" depart="0.13">
        <route edges="F4E4 E4E3 E3E2 E2E3"/>
    </vehicle>
    <vehicle id="26" depart="0.13">
        <route edges="C5C4 C4C3 C3C2 C2D2 D2E2 E2F2 F2E2"/>
    </vehicle>
    <vehicle id="27" depart="0.14">
        <route edges="D2C2 C2D2 D2D1 D1D0 D0D1"/>
    </vehicle>
    <vehicle id="28" depart="0.14">
        <route edges="F3F4 F4F3 F3F2 F2F1 F1F0 F0E0 E0E1"/>
    </vehicle>
    <vehicle id="29" depart="0.15">
        <route edges="B4B5 B5B4 B4B3 B3B2 B2B1 B1B0 B0C0 C0D0 D0E0 E0F0 F0F1"/>
    </vehicle>
    <vehicle id="30" depart="0.15">
        <route edges="E4F4 F4F3 F3F2 F2F1 F1E1 E1D1 D1C1"/>
    </vehicle>
    <vehicle id="31" depart="0.16">
        <route edges="E1E2 E2E3 E3E4 E4D4 D4D5"/>
    </vehicle>
    <vehicle id="32" depart="0.16">
        <route edges="B5B4 B4C4 C4D4 D4E4 E4D4"/>
    </vehicle>
    <vehicle id="33" depart="0.17">
        <route edges="B1B0 B0C0 C0D0 D0E0 E0F0 F0F1 F1F2 F2F3 F3F4"/>
    </vehicle>
    <vehicle id="34" depart="0.17">
        <route edges="D0C0 C0C1 C1C2 C2C3 C3D3 D3E3 E3F3 F3E3"/>
    </vehicle>
    <vehicle id="35" depart="0.18">
        <route edges="C0B0 B0A0 A0A1 A1A2 A2A3 A3A4"/>
    </vehicle>
    <vehicle id="36" depart="0.18">
        <route edges="F0E0 E0D0 D0C0 C0C1 C1C2 C2C3 C3C4 C4C5"/>
    </vehicle>
    <vehicle id="37" depart="0.19">
        <route edges="B2C2 C2C3 C3D3 D3E3 E3F3 F3E3"/>
    </vehicle>
    <vehicle id="38" depart="0.19">
        <route edges="B4B5 B5B4 B4B3 B3B2 B2B1 B1B0 B0C0 C0D0"/>
    </vehicle>
    <vehicle id="39" depart="0.20">
        <route edges="F4F5 F5E5 E5D5 D5D4 D4D3 D3D2 D2C2"/>
    </vehicle>
    <vehicle id="40" depart="0.20">
        <route edges="B2B3 B3B4 B4B5 B5C5 C5D5 D5C5"/>
    </vehicle>
    <vehicle id="41" depart="0.21">
        <route edges="B5A5 A5A4 A4A5 A5B5 B5C5 C5D5 D5C5"/>
    </vehicle>
    <vehicle id="42" depart="0.21">
        <route edges="B3B4 B4B3 B3B2 B2B1 B1A1"/>
    </vehicle>
    <vehicle id="43" depart="0.22">
        <route edges="B2B1 B1B2 B2C2 C2B2"/>
    </vehicle>
    <vehicle id="44" depart="0.22">
        <route edges="D4E4 E4F4 F4F3"/>
    </vehicle>
    <vehicle id="45" depart="0.23">
        <route edges="B4A4 A4B4 B4B3 B3B2 B2B1 B1A1"/>
    </vehicle>
    <vehicle id="46" depart="0.23">
        <route edges="E4E5 E5E4 E4E3 E3E2 E2E1 E1E0 E0F0 F0F1"/>
    </vehicle>
    <vehicle id="47" depart="0.24">
        <route edges="F3E3 E3D3 D3D4"/>
    </vehicle>
    <vehicle id="48" depart="0.24">
        <route edges="C1B1 B1B2 B2C2 C2D2 D2D1"/>
    </vehicle>
    <vehicle id="49" depart="0.25">
        <route edges="F3F2 F2E2 E2D2 D2C2 C2B2 B2A2 A2A3 A3A2"/>
    </vehicle>
    <vehicle id="50" depart="0.25">
        <route edges="C5D5 D5C5 C5B5 B5A5 A5A4 A4A3"/>
    </vehicle>
    <vehicle id="51" depart="0.26">
        <route edges="F4E4 E4D4 D4C4 C4B4"/>
    </vehicle>
    <vehicle id="52" depart="0.26">
        <route edges="E5E4 E4E3"/>
    </vehicle>
    <vehicle id="53" depart="0.27">
        <route edges="C1B1 B1C1 C1D1 D1E1 E1F1 F1F2"/>
    </vehicle>
    <vehicle id="54" depart="0.27">
        <route edges="E1E0 E0D0 D0C0 C0B0 B0A0 A0A1 A1A2 A2A3 A3A4 A4A5 A5B5"/>
    </vehicle>
    <vehicle id="55" depart="0.28">
        <route edges="F5E5 E5D5 D5D4 D4D3 D3C3 C3C4"/>
    </vehicle>
    <vehicle id="56" depart="0.28">
        <route edges="F2E2 E2D2 D2C2 C2B2 B2B3 B3B4 B4B3"/>
    </vehicle>
    <vehicle id="57" depart="0.29">
        <route edges="A4B4 B4C4 C4D4 D4E4 E4F4 F4F3 F3F4"/>
    </vehicle>
    <vehicle id="58" depart="0.29">
        <route edges="B1B0 B0A0 A0A1 A1B1"/>
    </vehicle>
    <vehicle id="59" depart="0.30">
        <route edges="D0C0 C0B0 B0A0 A0A1 A1A2 A2A3 A3A4 A4B4"/>
    </vehicle>
    <vehicle id="60" depart="0.30">
        <route edges="A3A2 A2B2 B2C2 C2D2 D2D3"/>
    </vehicle>
    <vehicle id="61" depart="0.31">
        <route edges="F3E3 E3E2 E2D2"/>
    </vehicle>
    <vehicle id="62" depart="0.31">
        <route edges="F4F5 F5E5 E5D5 D5D4 D4D3 D3C3"/>
    </vehicle>
    <vehicle id="63" depart="0.32">
        <route edges="C3C4 C4C5 C5C4"/>
    </vehicle>
    <vehicle id="64" depart="0.32">
        <route edges="D0C0 C0B0 B0C0"/>
    </vehicle>
    <vehicle id="65" depart="0.33">
        <route edges="D4D3 D3C3 C3C4 C4C5 C5B5"/>
    </vehicle>
    <vehicle id="66" depart="0.33">
        <route edges="D5E5 E5F5 F5F4 F4E4"/>
    </vehicle>
    <vehicle id="67" depart="0.34">
        <route edges="E2D2 D2D3 D3D4 D4D5 D5C5"/>
    </vehicle>
    <vehicle id="68" depart="0.34">
        <route edges="C4D4 D4E4 E4F4 F4F3 F3F2 F2F1 F1F2"/>
    </vehicle>
    <vehicle id="69" depart="0.35">
        <route edges="B2B3 B3B4 B4B5 B5B4"/>
    </vehicle>
    <vehicle id="70" depart="0.35">
        <route edges="D2D1 D1D2 D2D3 D3D4 D4E4 E4F4 F4F3"/>
    </vehicle>
    <vehicle id="71" depart="0.36">
        <route edges="D3E3 E3E2 E2E1 E1E0 E0D0 D0C0 C0B0 B0A0"/>
    </vehicle>
    <vehicle id="72" depart="0.36">
        <route edges="D3D2 D2D3 D3C3"/>
    </vehicle>
    <vehicle id="73" depart="0.37">
        <route edges="E1D1 D1D2"/>
    </vehicle>
    <vehicle id="74" depart="0.37">
        <route edges="E3E2 E2D2 D2C2 C2B2 B2B3 B3A3"/>
    </vehicle>
    <vehicle id="75" depart="0.38">
        <route edges="E0D0 D0C0 C0B0 B0B1 B1B2 B2B3 B3B4 B4A4"/>
    </vehicle>
    <vehicle id="76" depart="0.38">
        <route edges="B2B3 B3B4 B4C4 C4D4 D4E4 E4D4"/>
    </vehicle>
    <vehicle id="77" depart="0.39">
        <route edges="A4B4 B4C4 C4D4 D4E4 E4E3 E3E4"/>
    </vehicle>
    <vehicle id="78" depart="0.39">
        <route edges="E1E0 E0D0 D0C0 C0C1 C1C2 C2D2"/>
    </vehicle>
    <vehicle id="79" depart="0.40">
        <route edges="C1D1 D1C1"/>
    </vehicle>
    <vehicle id="80" depart="0.40">
        <route edges="B3B4 B4C4 C4D4 D4E4 E4E3 E3E2 E2E1"/>
    </vehicle>
    <vehicle id="81" depart="0.41">
        <route edges="E4F4 F4F5 F5E5 E5D5 D5C5"/>
    </vehicle>
    <vehicle id="82" depart="0.41">
        <route edges="E3D3 D3C3 C3B3 B3C3"/>
    </vehicle>
    <vehicle id="83" depart="0.42">
        <route edges="D0D1 D1D2 D2D3 D3D4 D4C4 C4C3"/>
    </vehicle>
    <vehicle id="84" depart="0.42">
        <route edges="F2F1 F1E1 E1D1 D1C1 C1B1 B1C1"/>
    </vehicle>
    <vehicle id="85" depart="0.43">
        <route edges="E2F2 F2E2 E2D2 D2C2 C2C3 C3C2"/>
    </vehicle>
    <vehicle id="86" depart="0.43">
        <route edges="E3E4 E4F4 F4F3 F3F2"/>
    </vehicle>
    <vehicle id="87" depart="0.44">
        <route edges="C4B4 B4B3"/>
    </vehicle>
    <vehicle id="88" depart="0.44">
        <route edges="C3D3 D3D2 D2D1 D1D0 D0D1"/>
    </vehicle>
    <vehicle id="89" depart="0.45">
        <route edges="E5F5 F5F4 F4E4 E4D4 D4C4 C4B4 B4A4 A4A5 A5B5"/>
    </vehicle>
    <vehicle id="90" depart="0.45">
        <route edges="F3F2 F2F1 F1F0 F0E0 E0D0 D0C0 C0B0"/>
    </vehicle>
    <vehicle id="91" depart="0.46">
        <route edges="E1F1 F1E1 E1D1 D1C1 C1B1 B1A1 A1A2 A2A3"/>
    </vehicle>
    <vehicle id="92" depart="0.46">
        <route edges="E1D1 D1E1 E1E0"/>
    </vehicle>
    <vehicle id="93" depart="0.47">
        <route edges="A4A3 A3A4 A4B4 B4C4 C4D4"/>
    </vehicle>
    <vehicle id="94" depart="0.47">
        <route edges="C4B4 B4B5 B5C5"/>
    </vehicle>
    <vehicle id="95" depart="0.48">
        <route edges="C1C0 C0C1 C1D1 D1E1 E1E2"/>
    </vehicle>
    <vehicle id="96" depart="0.48">
        <route edges="F5F4 F4F3 F3F2 F2F1 F1F0 F0E0 E0F0 F0F1"/>
    </vehicle>
    <vehicle id="97" depart="0.49">
        <route edges="A1B1 B1C1 C1D1 D1D2"/>
    </vehicle>
    <vehicle id="98" depart="0.49">
        <route edges="D1E1 E1D1 D1C1 C1B1 B1B2"/>
    </vehicle>
    <vehicle id="99" depart="0.50">
        <route edges="B3A3 A3B3 B3C3 C3B3"/>
    </vehicle>
    <vehicle id="100" depart="0.50">
        <route edges="B4C4 C4C5 C5D5 D5E5 E5F5"/>
    </vehicle>
    <vehicle id="101" depart="0.51">
        <route edges="E1F1 F1E1 E1D1 D1C1 C1B1 B1A1 A1A2"/>
    </vehicle>
    <vehicle id="102" depart="0.51">
        <route edges="E0D0 D0C0 C0B0 B0B1 B1B2 B2B3 B3B4 B4B5"/>
    </vehicle>
    <vehicle id="103" depart="0.52">
        <route edges="D2E2 E2D2 D2C2 C2C1 C1C0"/>
    </vehicle>
    <vehicle id="104" depart="0.52">
        <route edges="F4F5 F5E5 E5D5 D5D4 D4D3"/>
    </vehicle>
    <vehicle id="105" depart="0.53">
        <route edges="C4B4 B4C4 C4D4 D4E4 E4E3 E3E2 E2F2"/>
    </vehicle>
    <vehicle id="106" depart="0.53">
        <route edges="D3D4 D4D3 D3C3 C3D3"/>
    </vehicle>
    <vehicle id="107" depart="0.54">
        <route edges="C0D0 D0C0 C0B0 B0A0 A0A1 A1A2"/>
    </vehicle>
    <vehicle id="108" depart="0.54">
        <route edges="F3F2 F2E2 E2D2 D2C2 C2B2 B2A2 A2A3"/>
    </vehicle>
    <vehicle id="109" depart="0.55">
        <route edges="B2B1 B1B2 B2B3 B3B4 B4B5 B5C5 C5D5"/>
    </vehicle>
    <vehicle id="110" depart="0.55">
        <route edges="B0C0 C0D0 D0E0 E0F0 F0F1 F1F0 F0E0"/>
    </vehicle>
    <vehicle id="111" depart="0.56">
        <route edges="A0B0 B0B1 B1B2 B2B3"/>
    </vehicle>
    <vehicle id="112" depart="0.56">
        <route edges="C2C1 C1B1 B1B2 B2B3 B3C3"/>
    </vehicle>
    <vehicle id="113" depart="0.57">
        <route edges="E3F3 F3F2 F2E2 E2D2 D2C2 C2B2 B2A2 A2B2"/>
    </vehicle>
    <vehicle id="114" depart="0.57">
        <route edges="B4B3 B3B2 B2A2 A2A1 A1A0 A0B0"/>
    </vehicle>
    <vehicle id="115" depart="0.58">
        <route edges="A1B1 B1A1 A1A2 A2A3 A3A4 A4A3"/>
    </vehicle>
    <vehicle id="116" depart="0.58">
        <route edges="F2F1 F1E1 E1E2 E2E3 E3E4 E4E5 E5E4"/>
    </vehicle>
    <vehicle id="117" depart="0.59">
        <route edges="A0A1 A1A2 A2A3 A3A4 A4A3"/>
    </vehicle>
    <vehicle id="118" depart="0.59">
        <route edges="D1D0 D0D1 D1D2 D2D3 D3D4 D4D5 D5C5 C5B5 B5A5"/>
    </vehicle>
    <vehicle id="119" depart="0.60">
        <route edges="C5D5 D5D4 D4C4 C4C3 C3C2"/>
    </vehicle>
    <vehicle id="120" depart="0.60">
        <route edges="F0F1 F1F2 F2F3 F3F4 F4E4"/>
    </vehicle>
    <vehicle id="121" depart="0.61">
        <route edges="D1C1 C1B1 B1B2 B2B3 B3B4 B4A4"/>
    </vehicle>
    <vehicle id="122" depart="0.61">
        <route edges="B0B1 B1C1 C1D1 D1E1 E1F1 F1F0 F0E0"/>
    </vehicle>
    <vehicle id="123" depart="0.62">
        <route edges="C5B5 B5C5 C5D5 D5D4 D4D3 D3D2 D2C2"/>
    </vehicle>
    <vehicle id="124" depart="0.62">
        <route edges="D3C3 C3D3 D3E3 E3F3 F3F2"/>
    </vehicle>
    <vehicle id="125" depart="0.63">
        <route edges="F3F2 F2E2 E2F2"/>
    </vehicle>
    <vehicle id="126" depart="0.63">
        <route edges="B1A1 A1A2 A2A3 A3A4 A4B4 B4B3"/>
    </vehicle>
    <vehicle id="127" depart="0.64">
        <route edges="C4B4 B4B5 B5C5 C5D5"/>
    </vehicle>
    <vehicle id="128" depart="0.64">
        <route edges="B2B1 B1B2 B2C2 C2D2 D2E2 E2F2 F2E2"/>
    </vehicle>
    <vehicle id="129" depart="0.65">
        <route edges="C2B2"/>
    </vehicle>
    <vehicle id="130" depart="0.65">
        <route edges="E2D2 D2D1 D1D2"/>
    </vehicle>
    <vehicle id="131" depart="0.66">
        <route edges="E0F0 F0F1 F1F2 F2F3 F3F4 F4F3"/>
    </vehicle>
    <vehicle id="132" depart="0.66">
        <route edges="C3B3 B3B4 B4B5 B5C5 C5D5 D5E5 E5F5"/>
    </vehicle>
    <vehicle id="133" depart="0.67">
        <route edges="D2D3 D3D2 D2D1 D1C1 C1B1 B1A1 A1B1"/>
    </vehicle>
    <vehicle id="134" depart="0.67">
        <route edges="A4A5 A5B5 B5C5 C5D5 D5E5 E5D5"/>
    </vehicle>
    <vehicle id="135" depart="0.68">
        <route edges="B1B2 B2B1 B1A1 A1A2"/>
    </vehicle>
    <vehicle id="136" depart="0.68">
        <route edges="E1E2 E2E1 E1E0 E0E1"/>
    </vehicle>
    <vehicle id="137" depart="0.69">
        <route edges="C2D2 D2C2 C2B2 B2B1 B1B0"/>
    </vehicle>
    <vehicle id="138" depart="0.69">
        <route edges="E1E0 E0D0 D0C0 C0B0 B0A0 A0A1 A1A2 A2A1"/>
    </vehicle>
    <vehicle id="139" depart="0.70">
        <route edges="F2F3 F3F4 F4E4 E4F4"/>
    </vehicle>
    <vehicle id="140" depart="0.70">
        <route edges="F2F3 F3F4 F4F5"/>
    </vehicle>
    <vehicle id="141" depart="0.71">
        <route edges="B1C1 C1C2 C2C3 C3C4 C4C5 C5C4"/>
    </vehicle>
    <vehicle id="142" depart="0.71">
        <route edges="D3E3 E3F3 F3F2 F2F1 F1F0"/>
    </vehicle>
    <vehicle id="143" depart="0.72">
        <route edges="A4B4 B4B3 B3B2 B2C2"/>
    </vehicle>
    <vehicle id="144" depart="0.72">
        <route edges="E2D2 D2C2 C2B2 B2B3 B3B2"/>
    </vehicle>
    <vehicle id="145" depart="0.73">
        <route edges="A3A4 A4A3 A3A2 A2A1 A1B1"/>
    </vehicle>
    <vehicle id="146" depart="0.73">
        <route edges="B0B1 B1B2 B2B3 B3B4 B4B3"/>
    </vehicle>
    <vehicle id="147" depart="0.74">
        <route edges="B1A1 A1A0 A0B0"/>
    </vehicle>
    <vehicle id="148" depart="0.74">
        <route edges="D3D2 D2C2 C2C3"/>
    </vehicle>
    <vehicle id="149" depart="0.75">
        <route edges="A1A0 A0B0 B0B1 B1C1"/>
    </vehicle>
    <vehicle id="150" depart="0.75">
        <route edges="E2D2 D2C2 C2B2 B2B3 B3B4 B4C4"/>
    </vehicle>
    <vehicle id="151" depart="0.76">
        <route edges="F4F5 F5E5 E5D5 D5D4 D4D3 D3D2 D2D1 D1D0 D0C0"/>
    </vehicle>
    <vehicle id="152" depart="0.76">
        <route edges="C4C5 C5D5 D5E5 E5F5 F5F4 F4F3 F3F2"/>
    </vehicle>
    <vehicle id="153" depart="0.77">
        <route edges="E3E4 E4E3 E3E2 E2D2 D2C2 C2B2 B2A2"/>
    </vehicle>
    <vehicle id="154" depart="0.77">
        <route edges="C1D1 D1D2 D2E2 E2F2 F2E2"/>
    </vehicle>
    <vehicle id="155" depart="0.78">
        <route edges="D4D3 D3D2 D2C2 C2B2"/>
    </vehicle>
    <vehicle id="156" depart="0.78">
        <route edges="A1A2 A2B2 B2B1 B1A1"/>
    </vehicle>
    <vehicle id="157" depart="0.79">
        <route edges="B1B2 B2B3 B3B4 B4B5 B5C5 C5D5 D5E5 E5F5 F5F4"/>
    </vehicle>
    <vehicle id="158" depart="0.79">
        <route edges="E4E5 E5D5 D5C5 C5B5 B5A5 A5A4 A4A3 A3A2"/>
    </vehicle>
    <vehicle id="159" depart="0.80">
        <route edges="E1F1 F1E1 E1E2 E2E3 E3E4"/>
    </vehicle>
    <vehicle id="160" depart="0.80">
        <route edges="A3B3 B3B2 B2B1 B1B2"/>
    </vehicle>
    <vehicle id="161" depart="0.81">
        <route edges="B1A1 A1A2 A2B2"/>
    </vehicle>
    <vehicle id="162" depart="0.81">
        <route edges="D1C1 C1C2 C2C3 C3C4 C4D4 D4E4"/>
    </vehicle>
    <vehicle id="163" depart="0.82">
        <route edges="A3B3 B3C3 C3D3 D3E3 E3F3 F3F2 F2F1 F1F0 F0E0"/>
    </vehicle>
    <vehicle id="164" depart="0.82">
        <route edges="F1F0 F0E0 E0D0 D0C0 C0B0 B0A0 A0A1 A1A2 A2A3 A3A4 A4A3"/>
    </vehicle>
    <vehicle id="165" depart="0.83">
        <route edges="B4C4 C4C3 C3C2 C2D2 D2E2"/>
    </vehicle>
    <vehicle id="166" depart="0.83">
        <route edges="D4E4 E4D4 D4D3 D3D2 D2D1 D1D0"/>
    </vehicle>
    <vehicle id="167" depart="0.84">
        <route edges="C4B4 B4C4 C4D4 D4E4 E4F4 F4F3 F3F2 F2F1 F1E1"/>
    </vehicle>
    <vehicle id="168" depart="0.84">
        <route edges="C1B1 B1A1 A1A2 A2A3"/>
    </vehicle>
    <vehicle id="169" depart="0.85">
        <route edges="A4B4 B4B5 B5C5 C5D5 D5D4"/>
    </vehicle>
    <vehicle id="170" depart="0.85">
        <route edges="A4A3 A3B3 B3C3 C3D3 D3D4"/>
    </vehicle>
    <vehicle id="171" depart="0.86">
        <route edges="D1E1 E1E2 E2E3 E3E4 E4E5 E5D5 D5C5"/>
    </vehicle>
    <vehicle id="172" depart="0.86">
        <route edges="D3D2 D2D1 D1C1 C1B1 B1C1"/>
    </vehicle>
    <vehicle id="173" depart="0.87">
        <route edges="E5D5 D5E5 E5F5 F5F4 F4E4"/>
    </vehicle>
    <vehicle id="174" depart="0.87">
        <route edges="C1D1 D1D0 D0C0"/>
    </vehicle>
    <vehicle id="175" depart="0.88">
        <route edges="E4E3 E3D3 D3C3 C3C4 C4C5"/>
    </vehicle>
    <vehicle id="176" depart="0.88">
        <route edges="B0A0 A0A1 A1A2 A2A3 A3A4 A4A5 A5B5 B5A5"/>
    </vehicle>
    <vehicle id="177" depart="0.89">
        <route edges="C1C0 C0C1 C1D1 D1E1 E1F1"/>
    </vehicle>
    <vehicle id="178" depart="0.89">
        <route edges="E2F2 F2F3 F3F4 F4F5 F5E5 E5D5 D5C5 C5B5"/>
    </vehicle>
    <vehicle id="179" depart="0.90">
        <route edges="F4F3 F3F2 F2F1 F1E1 E1D1 D1C1"/>
    </vehicle>
    <vehicle id="180" depart="0.90">
        <route edges="D4D3 D3C3 C3B3 B3B2"/>
    </vehicle>
    <vehicle id="181" depart="0.91">
        <route edges="F2F3 F3F2 F2F1 F1E1"/>
    </vehicle>
    <vehicle id="182" depart="0.91">
        <route edges="A4B4 B4C4 C4D4 D4E4 E4F4 F4F3 F3F2 F2F1 F1F0 F0E0"/>
    </vehicle>
    <vehicle id="183" depart="0.92">
        <route edges="D5E5"/>
    </vehicle>
    <vehicle id="184" depart="0.92">
        <route edges="C1B1 B1C1 C1D1"/>
    </vehicle>
    <vehicle id="185" depart="0.93">
        <route edges="B4B5 B5B4 B4B3 B3A3 A3B3"/>
    </vehicle>
    <vehicle id="186" depart="0.93">
        <route edges="D4C4 C4B4 B4A4 A4A3"/>
    </vehicle>
    <vehicle id="187" depart="0.94">
        <route edges="E0F0 F0F1 F1F0"/>
    </vehicle>
    <vehicle id="188" depart="0.94">
        <route edges="C1C2 C2C3 C3B3"/>
    </vehicle>
    <vehicle id="189" depart="0.95">
        <route edges="F3F2 F2E2 E2D2 D2D3 D3D2"/>
    </vehicle>
    <vehicle id="190" depart="0.95">
        <route edges="E4E5 E5E4"/>
    </vehicle>
    <vehicle id="191" depart="0.96">
        <route edges="A4A5 A5B5 B5B4 B4B3 B3B2"/>
    </vehicle>
    <vehicle id="192" depart="0.96">
        <route edges="A2A3 A3A2 A2A1 A1A0 A0B0"/>
    </vehicle>
    <vehicle id="193" depart="0.97">
        <route edges="F1E1 E1D1 D1C1 C1B1 B1B2 B2B3 B3A3"/>
    </vehicle>
    <vehicle id="194" depart="0.97">
        <route edges="B2B3 B3B4 B4C4 C4D4 D4E4"/>
    </vehicle>
    <vehicle id="195" depart="0.98">
        <route edges="E3D3 D3E3 E3F3"/>
    </vehicle>
    <vehicle id="196" depart="0.98">
        <route edges="D2C2 C2D2 D2D1 D1E1 E1F1"/>
    </vehicle>
    <vehicle id="197" depart="0.99">
        <route edges="D1C1 C1B1 B1B2 B2B3 B3B4 B4B5"/>
    </vehicle>
    <vehicle id="198" depart="0.99">
        <route edges="F3F4 F4F5 F5E5 E5D5 D5C5 C5B5"/>
    </vehicle>
    <vehicle id="199" depart="1.00">
        <route edges="E3E2 E2E1 E1D1"/>
    </vehicle>
    <vehicle id="200" depart="1.00">
        <route edges="B1B2 B2A2 A2A3"/>
    </vehicle>
    <vehicle id="201" depart="1.01">
        <route edges="C2C3 C3C2 C2B2 B2C2"/>
    </vehicle>
    <vehicle id="202" depart="1.01">
        <route edges="D0E0 E0D0 D0C0 C0B0 B0B1 B1B2 B2A2"/>
    </vehicle>
    <vehicle id="203" depart="1.02">
        <route edges="E5D5 D5D4 D4D3 D3D2 D2D1 D1D0"/>
    </vehicle>
    <vehicle id="204" depart="1.02">
        <route edges="F4F5 F5E5 E5D5 D5C5 C5C4 C4C3"/>
    </vehicle>
    <vehicle id="205" depart="1.03">
        <route edges="E3F3 F3F2 F2E2 E2E3"/>
    </vehicle>
    <vehicle id="206" depart="1.03">
        <route edges="B5C5 C5D5 D5E5 E5E4 E4E3 E3E2 E2F2"/>
    </vehicle>
    <vehicle id="207" depart="1.03">
        <route edges="C2C3 C3C4 C4D4 D4D5 D5C5"/>
    </vehicle>
    <vehicle id="208" depart="1.04">
        <route edges="C0B0 B0C0 C0D0 D0E0"/>
    </vehicle>
    <vehicle id="209" depart="1.04">
        <route edges="B0A0 A0A1 A1A2 A2A3 A3A4 A4A5 A5B5 B5C5 C5D5 D5C5"/>
    </vehicle>
    <vehicle id="210" depart="1.05">
        <route edges="E1E2 E2E3 E3D3 D3C3 C3B3 B3A3"/>
    </vehicle>
    <vehicle id="211" depart="1.05">
        <route edges="F4F3 F3F2 F2E2 E2D2 D2C2 C2B2 B2B3"/>
    </vehicle>
    <vehicle id="212" depart="1.06">
        <route edges="B1B2 B2C2 C2C1 C1C2"/>
    </vehicle>
    <vehicle id="213" depart="1.06">
        <route edges="E3D3 D3D4"/>
    </vehicle>
    <vehicle id="214" depart="1.07">
        <route edges="F5F4 F4E4 E4D4 D4C4 C4B4 B4A4 A4A5 A5B5"/>
    </vehicle>
    <vehicle id="215" depart="1.07">
        <route edges="A0B0 B0B1 B1B2 B2B3 B3B4 B4B5"/>
    </vehicle>
    <vehicle id="216" depart="1.08">
        <route edges="C3C4 C4C3 C3C2 C2C1 C1C2"/>
    </vehicle>
    <vehicle id="217" depart="1.08">
        <route edges="F4E4 E4E3 E3D3 D3E3"/>
    </vehicle>
    <vehicle id="218" depart="1.09">
        <route edges="D0D1 D1D2 D2D3 D3C3 C3B3 B3B4"/>
    </vehicle>
    <vehicle id="219" depart="1.09">
        <route edges="C1D1 D1E1 E1D1"/>
    </vehicle>
    <vehicle id="220" depart="1.10">
        <route edges="B5C5 C5D5 D5E5 E5F5 F5F4 F4F3 F3F2 F2F1 F1F2"/>
    </vehicle>
    <vehicle id="221" depart="1.10">
        <route edges="D5E5 E5D5 D5C5 C5B5 B5A5 A5A4 A4A3 A3A2 A2A1 A1A0"/>
    </vehicle>
    <vehicle id="222" depart="1.11">
        <route edges="E0D0 D0D1 D1E1 E1F1 F1F0 F0E0"/>
    </vehicle>
    <vehicle id="223" depart="1.11">
        <route edges="C0D0 D0E0 E0F0 F0F1 F1F2 F2F3 F3F4 F4E4"/>
    </vehicle>
    <vehicle id="224" depart="1.12">
        <route edges="B3C3 C3C4 C4D4 D4E4 E4D4"/>
    </vehicle>
    <vehicle id="225" depart="1.12">
        <route edges="B2A2 A2B2 B2C2 C2C1"/>
    </vehicle>
    <vehicle id="226" depart="1.13">
        <route edges="C0C1 C1D1 D1E1 E1F1 F1F0"/>
    </vehicle>
    <vehicle id="227" depart="1.13">
        <route edges="C0C1 C1D1"/>
    </vehicle>
    <vehicle id="228" depart="1.14">
        <route edges="A4B4 B4C4 C4D4 D4D3 D3C3"/>
    </vehicle>
    <vehicle id="229" depart="1.14">
        <route edges="E1F1 F1E1 E1D1 D1C1 C1B1 B1B2"/>
    </vehicle>
    <vehicle id="230" depart="1.15">
        <route edges="B1C1 C1B1 B1B2 B2B3"/>
    </vehicle>
    <vehicle id="231" depart="1.15">
        <route edges="A0A1 A1A2 A2A3 A3A4"/>
    </vehicle>
    <vehicle id="232" depart="1.16">
        <route edges="F0F1 F1F2 F2F3 F3F4 F4F5 F5E5 E5E4"/>
    </vehicle>
    <vehicle id="233" depart="1.16">
        <route edges="C3D3 D3C3 C3B3 B3B4 B4B3"/>
    </vehicle>
    <vehicle id="234" depart="1.17">
        <route edges="F3F4 F4E4 E4E3"/>
    </vehicle>
    <vehicle id="235" depart="1.17">
        <route edges="A3A4 A4B4 B4B3 B3B2 B2B1 B1C1"/>
    </vehicle>
    <vehicle id="236" depart="1.18">
        <route edges="E4F4 F4F5 F5E5 E5D5 D5D4"/>
    </vehicle>
    <vehicle id="237" depart="1.18">
        <route edges="F3E3 E3F3 F3F4 F4F5"/>
    </vehicle>
    <vehicle id="238" depart="1.19">
        <route edges="D4C4 C4C3 C3B3 B3C3"/>
    </vehicle>
    <vehicle id="239" depart="1.19">
        <route edges="F5F4 F4F3 F3E3 E3D3 D3C3 C3B3 B3A3"/>
    </vehicle>
    <vehicle id="240" depart="1.20">
        <route edges="D4C4 C4C3 C3C2 C2C1 C1B1 B1A1"/>
    </vehicle>
    <vehicle id="241" depart="1.20">
        <route edges="A5B5 B5B4 B4B3 B3B2 B2B1 B1B0 B0A0 A0A1"/>
    </vehicle>
    <vehicle id="242" depart="1.21">
        <route edges="E4F4 F4F3 F3F2 F2E2 E2D2 D2C2 C2D2"/>
    </vehicle>
    <vehicle id="243" depart="1.21">
        <route edges="E3D3 D3C3 C3C2"/>
    </vehicle>
    <vehicle id="244" depart="1.22">
        <route edges="E1E2 E2E3 E3D3 D3C3 C3B3 B3A3"/>
    </vehicle>
    <vehicle id="245" depart="1.22">
        <route edges="C0C1 C1C2 C2C3 C3D3 D3E3 E3F3 F3F2"/>
    </vehicle>
    <vehicle id="246" depart="1.23">
        <route edges="A3B3 B3C3 C3D3 D3E3 E3E2"/>
    </vehicle>
    <vehicle id="247" depart="1.23">
        <route edges="C1C0 C0B0 B0A0"/>
    </vehicle>
    <vehicle id="248" depart="1.24">
        <route edges="A1A0 A0B0 B0B1 B1B2 B2B3 B3B4 B4B5 B5C5"/>
    </vehicle>
    <vehicle id="249" depart="1.24">
        <route edges="F5F4 F4F3 F3E3 E3D3 D3C3 C3B3 B3B4"/>
    </vehicle>
    <vehicle id="250" depart="1.25">
        <route edges="E3E4 E4F4 F4E4"/>
    </vehicle>
    <vehicle id="251" depart="1.25">
        <route edges="C2D2 D2C2 C2B2 B2A2 A2A3 A3A4"/>
    </vehicle>
    <vehicle id="252" depart="1.26">
        <route edges="C5B5 B5C5 C5D5 D5E5 E5F5 F5F4 F4F3 F3F2 F2F1 F1E1"/>
    </vehicle>
    <vehicle id="253" depart="1.26">
        <route edges="D5E5 E5F5 F5F4 F4F3 F3F2 F2F1 F1F2"/>
    </vehicle>
    <vehicle id="254" depart="1.27">
        <route edges="C1D1 D1C1 C1B1 B1C1"/>
    </vehicle>
    <vehicle id="255" depart="1.27">
        <route edges="C2B2 B2C2 C2D2 D2E2 E2E1"/>
    </vehicle>
    <vehicle id="256" depart="1.28">
        <route edges="B2A2 A2B2 B2C2 C2D2 D2E2 E2F2 F2F1"/>
    </vehicle>
    <vehicle id="257" depart="1.28">
        <route edges="B0B1 B1B2 B2B3"/>
    </vehicle>
    <vehicle id="258" depart="1.29">
        <route edges="C4C3 C3C2 C2D2 D2E2 E2F2"/>
    </vehicle>
    <vehicle id="259" depart="1.29">
        <route edges="E0D0 D0D1 D1D2 D2D3"/>
    </vehicle>
    <vehicle id="260" depart="1.30">
        <route edges="B1B0 B0A0 A0A1 A1A2 A2A3 A3A4 A4B4"/>
    </vehicle>
    <vehicle id="261" depart="1.30">
        <route edges="A0B0 B0C0 C0D0 D0D1 D1D2 D2D3 D3D4 D4D5 D5C5"/>
    </vehicle>
    <vehicle id="262" depart="1.31">
        <route edges="D4C4 C4B4 B4B5 B5B4"/>
    </vehicle>
    <vehicle id="263" depart="1.31">
        <route edges="C5C4 C4B4 B4C4"/>
    </vehicle>
    <vehicle id="264" depart="1.32">
        <route edges="C2C3 C3B3 B3A3 A3A2"/>
    </vehicle>
    <vehicle id="265" depart="1.32">
        <route edges="B0C0 C0B0 B0A0 A0A1 A1A2 A2A1"/>
    </vehicle>
    <vehicle id="266" depart="1.33">
        <route edges="C2C1 C1C2 C2C3 C3D3"/>
    </vehicle>
    <vehicle id="267" depart="1.33">
        <route edges="B4B5 B5B4 B4B3 B3B2 B2B3"/>
    </vehicle>
    <vehicle id="268" depart="1.34">
        <route edges="E1F1 F1F2"/>
    </vehicle>
    <vehicle id="269" depart="1.34">
        <route edges="C1C0 C0D0 D0E0 E0E1"/>
    </vehicle>
    <vehicle id="270" depart="1.35">
        <route edges="F5E5 E5E4 E4E3 E3E4"/>
    </vehicle>
    <vehicle id="271" depart="1.35">
        <route edges="E4E3 E3E4 E4E5 E5D5"/>
    </vehicle>
    <vehicle id="272" depart="1.36">
        <route edges="B5B4 B4B3 B3B2 B2A2"/>
    </vehicle>
    <vehicle id="273" depart="1.36">
        <route edges="D5D4 D4D3 D3C3 C3B3 B3A3 A3B3"/>
    </vehicle>
    <vehicle id="274" depart="1.37">
        <route edges="A0B0 B0C0 C0D0 D0E0 E0E1"/>
    </vehicle>
    <vehicle id="275" depart="1.37">
        <route edges="B0C0 C0C1 C1B1"/>
    </vehicle>
    <vehicle id="276" depart="1.38">
        <route edges="D3C3 C3C2 C2B2 B2A2 A2B2"/>
    </vehicle>
    <vehicle id="277" depart="1.38">
        <route edges="E0D0 D0C0 C0C1 C1C2 C2C3 C3C4 C4C5"/>
    </vehicle>
    <vehicle id="278" depart="1.39">
        <route edges="C5D5 D5E5 E5F5"/>
    </vehicle>
    <vehicle id="279" depart="1.39">
        <route edges="A3A4 A4A5 A5B5 B5B4"/>
    </vehicle>
    <vehicle id="280" depart="1.40">
        <route edges="D4D3 D3C3 C3B3"/>
    </vehicle>
    <vehicle id="281" depart="1.40">
        <route edges="A3A4 A4B4 B4C4 C4D4 D4D3 D3D2 D2D1"/>
    </vehicle>