<?xml version="1.0" encoding="UTF-8"?>

<!-- generated on Thu Nov 14 14:01:53 2019 by Eclipse SUMO polyconvert Version 1.3.1
<configuration xmlns:xsi="http://www.w3.org/2001/XMLSchema-instance" xsi:noNamespaceSchemaLocation="http://sumo.dlr.de/xsd/polyconvertConfiguration.xsd">

    <input>
        <net-file value="osm.net.xml"/>
        <osm-files value="osm_bbox.osm.xml"/>
        <osm.keep-full-type value="true"/>
        <type-file value="/usr/share/sumo/data/typemap/osmPolyconvert.typ.xml"/>
    </input>

    <output>
        <output-file value="osm.poly.xml"/>
    </output>

    <processing>
        <poi-layer-offset value="5"/>
    </processing>

    <report>
        <verbose value="true"/>
    </report>

</configuration>
-->

<additional xmlns:xsi="http://www.w3.org/2001/XMLSchema-instance" xsi:noNamespaceSchemaLocation="http://sumo.dlr.de/xsd/additional_file.xsd">
    <location netOffset="-586796.14,-3872481.00" convBoundary="0.00,-0.00,1145.20,2173.20" origBoundary="135.951260,34.991189,135.963703,35.010756" projParameter="+proj=utm +zone=53 +ellps=WGS84 +datum=WGS84 +units=m +no_defs"/>

    <poly id="185964733" type="landuse.forest" color="140,196,107" fill="1" layer="-3.00" shape="1017.767564,857.794370 1038.641274,849.144724 1037.018438,835.708749 1041.315867,827.309767 1048.002021,826.742003 1057.089790,826.984865 1069.933566,818.191350 1076.297288,827.402926 1075.016482,843.816629 1081.082047,864.072159 1059.008963,894.892526 1061.126605,916.640577 1079.474956,934.208440 1102.160811,943.000674 1125.798197,937.350321 1145.200573,942.140344 1130.562893,957.149696 1114.219266,973.983755 1085.433046,994.945790 1057.399448,959.616285 1040.205178,952.984407 1030.766357,955.089508 987.716985,976.857172 965.615026,984.197431 944.402617,988.252223 886.315344,1035.418606 916.638196,1069.993224 903.530675,1091.073441 892.883678,1112.532266 847.972399,1099.312143 832.553240,1086.519933 811.925771,1100.961997 800.345163,1089.493318 782.587780,1063.591128 797.763234,1045.724880 851.229750,1012.078030 843.434225,995.155563 872.578895,971.024149 888.324198,979.338720 952.714703,939.176105 939.569130,895.915942 979.655406,864.381450 999.538416,855.300710 1017.767564,857.794370"/>
    <poly id="245427500" type="building.yes" color="255,230,230" fill="1" layer="-1.00" shape="535.062288,973.129960 565.614751,965.814203 563.253285,956.053519 532.700685,963.380375 535.062288,973.129960"/>
    <poly id="245427502" type="building.yes" color="255,230,230" fill="1" layer="-1.00" shape="541.876922,1001.045189 571.277758,994.849718 569.129384,984.758340 539.728412,990.964909 541.876922,1001.045189"/>
    <poly id="245427519" type="building.yes" color="255,230,230" fill="1" layer="-1.00" shape="227.864837,1708.220174 263.616887,1705.611427 261.580286,1678.074767 225.828129,1680.683524 227.864837,1708.220174"/>
    <poly id="245427520" type="building.yes" color="255,230,230" fill="1" layer="-1.00" shape="350.380028,1685.045893 371.370466,1682.052399 369.436387,1668.635756 348.445919,1671.629255 350.380028,1685.045893"/>
    <poly id="245427533" type="building.yes" color="255,230,230" fill="1" layer="-1.00" shape="489.339507,1006.409142 500.692419,1000.728280 497.727932,994.843749 486.365890,1000.524528 489.339507,1006.409142"/>
    <poly id="245427535" type="building.yes" color="255,230,230" fill="1" layer="-1.00" shape="580.447171,942.764737 629.641870,931.990015 627.525046,922.420210 578.330193,933.206035 580.447171,942.764737"/>
    <poly id="245427544" type="building.yes" color="255,230,230" fill="1" layer="-1.00" shape="627.361225,1812.829779 633.136035,1809.202911 625.351123,1796.916820 619.576309,1800.543693 627.361225,1812.829779"/>
    <poly id="245427549" type="building.yes" color="255,230,230" fill="1" layer="-1.00" shape="588.434997,1002.511828 604.566345,999.139506 602.663317,990.115224 598.191542,991.048369 586.541080,993.487637 588.434997,1002.511828"/>
    <poly id="245427558" type="building.yes" color="255,230,230" fill="1" layer="-1.00" shape="608.469053,997.590892 641.181076,990.628833 639.206886,981.415311 606.485706,988.377289 608.469053,997.590892"/>
    <poly id="245427574" type="building.yes" color="255,230,230" fill="1" layer="-1.00" shape="581.981419,973.124894 636.902747,960.929989 635.021161,952.527012 580.099785,964.721929 581.981419,973.124894"/>
    <poly id="245427576" type="building.retail" color="255,230,230" fill="1" layer="-1.00" shape="780.623911,963.086159 800.953364,948.341693 790.386780,933.899253 770.057207,948.654832 780.623911,963.086159"/>
    <poly id="245427576#1" type="shop.books" color="237,199,255" fill="1" layer="-1.00" shape="780.623911,963.086159 800.953364,948.341693 790.386780,933.899253 770.057207,948.654832 780.623911,963.086159"/>
    <poly id="245427583" type="building.yes" color="255,230,230" fill="1" layer="-1.00" shape="543.215984,1020.356661 546.601051,1019.490713 543.679866,1008.138634 540.294795,1009.004582 543.215984,1020.356661"/>
    <poly id="245427590" type="building.yes" color="255,230,230" fill="1" layer="-1.00" shape="637.376059,1862.814041 652.196917,1853.207110 630.719996,1820.381831 615.899110,1829.988797 637.376059,1862.814041"/>
    <poly id="256582561" type="building.yes" color="255,230,230" fill="1" layer="-1.00" shape="232.357912,821.945844 206.886798,800.784766 201.024716,807.771700 226.495717,828.943852 232.357912,821.945844"/>
    <poly id="256582562" type="building.apartments" color="255,230,230" fill="1" layer="-1.00" shape="247.773221,816.159269 247.128050,827.332996 264.623298,828.331918 265.268491,817.158192 247.773221,816.159269"/>
    <poly id="256582565" type="building.apartments" color="255,230,230" fill="1" layer="-1.00" shape="291.586757,847.067368 265.206082,835.158548 260.712991,845.008948 287.093643,856.917756 291.586757,847.067368"/>
    <poly id="256582619" type="natural.water" color="181,209,209" fill="1" layer="-4.00" shape="502.595855,688.585580 508.634153,685.149693 526.582216,697.976631 548.907966,713.030513 521.436832,764.452162 508.954517,786.060196 503.694139,808.336334 493.527339,827.371231 479.667963,827.915080 459.791123,824.963083 429.684405,817.132938 393.121148,807.810372 386.831496,785.057692 406.942047,752.142939 415.800669,734.370918 432.834406,713.039230 441.170082,690.792489 448.040424,678.613597 452.392342,669.238852 462.194128,663.554178 470.270692,659.805042 492.160226,682.307866 502.595855,688.585580"/>
    <poly id="265641289" type="amenity.fuel" color="237,199,199" fill="1" layer="-1.00" shape="340.595068,815.704104 376.581524,806.132691 388.340352,853.449148 352.426218,862.156091 340.595068,815.704104"/>
    <poly id="293161423" type="amenity.doctors" color="237,199,199" fill="1" layer="-1.00" shape="497.859897,1173.545978 613.286178,1117.665792 595.996865,1083.827185 572.442251,1095.202732 568.119044,1086.354899 504.313013,1117.242445 509.468891,1127.772991 486.941120,1138.681669 492.087879,1149.212117 487.145798,1151.615936 497.859897,1173.545978"/>
    <poly id="293161423#1" type="building.yes" color="255,230,230" fill="1" layer="-1.00" shape="497.859897,1173.545978 613.286178,1117.665792 595.996865,1083.827185 572.442251,1095.202732 568.119044,1086.354899 504.313013,1117.242445 509.468891,1127.772991 486.941120,1138.681669 492.087879,1149.212117 487.145798,1151.615936 497.859897,1173.545978"/>
    <poly id="338929280" type="building.apartments" color="255,230,230" fill="1" layer="-1.00" shape="483.413180,444.374123 451.741288,412.084045 442.482673,421.068009 451.404012,430.159407 439.482808,441.746496 447.708103,450.132488 461.057234,437.161591 475.591618,451.974325 483.413180,444.374123"/>
    <poly id="339856634" type="amenity.pub" color="237,199,199" fill="1" layer="-1.00" shape="479.434738,1120.098619 475.586504,1112.153764 486.992118,1106.673033 490.849471,1114.617980 479.434738,1120.098619"/>
    <poly id="339856634#1" type="building.yes" color="255,230,230" fill="1" layer="-1.00" shape="479.434738,1120.098619 475.586504,1112.153764 486.992118,1106.673033 490.849471,1114.617980 479.434738,1120.098619"/>
    <poly id="347002386" type="building.yes" color="255,230,230" fill="1" layer="-1.00" shape="472.747250,1250.455686 489.687206,1245.504878 486.416616,1234.426746 481.758325,1235.790714 469.476641,1239.377560 472.747250,1250.455686"/>
    <poly id="347002386#1" type="shop.convenience" color="237,199,255" fill="1" layer="-1.00" shape="472.747250,1250.455686 489.687206,1245.504878 486.416616,1234.426746 481.758325,1235.790714 469.476641,1239.377560 472.747250,1250.455686"/>
    <poly id="347090937" type="building.yes" color="255,230,230" fill="1" layer="-1.00" shape="376.200585,1055.902089 349.360272,1021.506812 337.542266,1036.710724 336.622817,1024.058006 338.288241,1012.139833 331.824230,1008.584323 329.315243,1021.869737 330.753026,1043.311613 327.004080,1061.243464 318.644535,1067.906989 321.127021,1070.758964 312.891642,1077.800780 327.176397,1095.727547 376.200585,1055.902089"/>
    <poly id="347090937#1" type="shop.supermarket" color="237,199,255" fill="1" layer="-1.00" shape="376.200585,1055.902089 349.360272,1021.506812 337.542266,1036.710724 336.622817,1024.058006 338.288241,1012.139833 331.824230,1008.584323 329.315243,1021.869737 330.753026,1043.311613 327.004080,1061.243464 318.644535,1067.906989 321.127021,1070.758964 312.891642,1077.800780 327.176397,1095.727547 376.200585,1055.902089"/>
    <poly id="347090940" type="amenity.parking" color="184,184,179" fill="1" layer="-1.00" shape="367.974625,1002.785459 356.963611,994.672344 337.558686,1007.308202 351.770050,1020.509465 361.444783,1009.932273 367.974625,1002.785459"/>
    <poly id="347106712" type="amenity.parking" color="184,184,179" fill="1" layer="-1.00" shape="469.476641,1239.377560 459.144924,1243.282552 471.225637,1280.697839 491.109531,1295.195873 504.473556,1282.458115 509.461747,1233.316535 500.048861,1221.325540 489.158302,1229.262334 486.416616,1234.426746 489.687206,1245.504878 472.747250,1250.455686 469.476641,1239.377560"/>
    <poly id="347109865" type="building.yes" color="255,230,230" fill="1" layer="-1.00" shape="205.482849,1272.933180 210.896406,1284.220211 223.346160,1278.305482 217.932614,1267.018443 205.482849,1272.933180"/>
    <poly id="347109865#1" type="shop.convenience" color="237,199,255" fill="1" layer="-1.00" shape="205.482849,1272.933180 210.896406,1284.220211 223.346160,1278.305482 217.932614,1267.018443 205.482849,1272.933180"/>
    <poly id="347109866" type="amenity.parking" color="184,184,179" fill="1" layer="-1.00" shape="202.121598,1289.482385 178.803877,1278.057750 171.915617,1259.680505 211.388868,1239.327877 216.421524,1251.321108 224.710143,1249.193105 242.027216,1264.941557 237.175650,1277.949528 223.346160,1278.305482 210.896406,1284.220211 202.121598,1289.482385"/>
    <poly id="348164722" type="amenity.fuel" color="237,199,199" fill="1" layer="-1.00" shape="454.219601,1879.691592 428.380849,1904.931750 425.429449,1903.428370 397.230704,1845.351245 405.299332,1835.646036 454.219601,1879.691592"/>
    <poly id="348164722#1" type="building.yes" color="255,230,230" fill="1" layer="-1.00" shape="454.219601,1879.691592 428.380849,1904.931750 425.429449,1903.428370 397.230704,1845.351245 405.299332,1835.646036 454.219601,1879.691592"/>
    <poly id="348165180" type="amenity.fuel" color="237,199,199" fill="1" layer="-1.00" shape="521.804846,1822.398647 529.368817,1824.423182 554.260655,1806.627499 547.308358,1775.061888 513.024535,1782.552615 521.804846,1822.398647"/>
    <poly id="348165180#1" type="building.yes" color="255,230,230" fill="1" layer="-1.00" shape="521.804846,1822.398647 529.368817,1824.423182 554.260655,1806.627499 547.308358,1775.061888 513.024535,1782.552615 521.804846,1822.398647"/>
    <poly id="352013001" type="leisure.pitch" color="207,245,201" fill="1" layer="-2.00" shape="770.826236,427.765181 795.503889,407.051034 804.258933,413.468217 832.843412,444.942404 829.806509,455.139275 818.601027,449.186525 793.110961,451.869649 770.826236,427.765181"/>
    <poly id="352013001#1" type="sport.tennis" color="79,230,125" fill="1" layer="-2.00" shape="770.826236,427.765181 795.503889,407.051034 804.258933,413.468217 832.843412,444.942404 829.806509,455.139275 818.601027,449.186525 793.110961,451.869649 770.826236,427.765181"/>
    <poly id="352013043" type="building.yes" color="255,230,230" fill="1" layer="-1.00" shape="356.642484,623.536794 346.009508,615.926426 342.358416,619.784521 345.372757,621.432645 336.598775,631.308635 344.949283,637.089314 356.642484,623.536794"/>
    <poly id="352013043#1" type="shop.convenience" color="237,199,255" fill="1" layer="-1.00" shape="356.642484,623.536794 346.009508,615.926426 342.358416,619.784521 345.372757,621.432645 336.598775,631.308635 344.949283,637.089314 356.642484,623.536794"/>
    <poly id="358297713" type="aerialway.yes" color="51,51,51" fill="1" layer="-2.00" shape="309.086081,1777.650588 306.491133,1764.626923 325.214175,1762.055302 333.230574,1768.309736 333.542545,1773.858308 309.086081,1777.650588"/>
    <poly id="358297713#1" type="amenity.restaurant" color="237,199,199" fill="1" layer="-1.00" shape="309.086081,1777.650588 306.491133,1764.626923 325.214175,1762.055302 333.230574,1768.309736 333.542545,1773.858308 309.086081,1777.650588"/>
    <poly id="358297713#2" type="building.yes" color="255,230,230" fill="1" layer="-1.00" shape="309.086081,1777.650588 306.491133,1764.626923 325.214175,1762.055302 333.230574,1768.309736 333.542545,1773.858308 309.086081,1777.650588"/>
    <poly id="369192740" type="building.industrial" color="255,230,230" fill="1" layer="-1.00" shape="716.662191,1706.645905 734.278365,1732.879402 729.789143,1741.365407 729.739929,1746.489065 725.539270,1750.585731 725.194583,1760.819591 708.403504,1776.008539 699.173154,1768.854816 690.850592,1743.187531 685.161121,1724.610621 716.662191,1706.645905"/>
    <poly id="369192830" type="amenity.restaurant" color="237,199,199" fill="1" layer="-1.00" shape="470.922587,1879.352443 477.833353,1872.397912 487.036365,1881.458832 480.125598,1888.413356 470.922587,1879.352443"/>
    <poly id="369192830#1" type="building.yes" color="255,230,230" fill="1" layer="-1.00" shape="470.922587,1879.352443 477.833353,1872.397912 487.036365,1881.458832 480.125598,1888.413356 470.922587,1879.352443"/>
    <poly id="369193380" type="amenity.dentist" color="237,199,199" fill="1" layer="-1.00" shape="397.836266,1159.234733 401.839994,1163.332406 404.391080,1167.593641 391.123265,1172.180455 384.781927,1160.584978 391.778044,1158.112024 397.836266,1159.234733"/>
    <poly id="369193380#1" type="building.yes" color="255,230,230" fill="1" layer="-1.00" shape="397.836266,1159.234733 401.839994,1163.332406 404.391080,1167.593641 391.123265,1172.180455 384.781927,1160.584978 391.778044,1158.112024 397.836266,1159.234733"/>
    <poly id="369194599" type="landuse.grass" color="194,194,130" fill="1" layer="-3.00" shape="511.433976,1441.838462 530.226576,1470.179026 565.029402,1495.301380 599.966687,1506.383725 615.243717,1447.369879 670.573574,1338.120223 639.091816,1324.464351 591.133691,1393.989714 511.433976,1441.838462"/>
    <poly id="369195204" type="building.保育園" color="255,230,230" fill="1" layer="-1.00" shape="711.195065,1990.849576 703.632219,1980.173763 707.117173,1971.722467 701.741473,1954.701316 724.504219,1936.253451 743.443757,1961.468219 739.978194,1966.947248 711.195065,1990.849576"/>
    <poly id="417744686" type="building.apartments" color="255,230,230" fill="1" layer="-1.00" shape="394.250087,977.926372 386.026418,938.884442 400.240875,935.548879 400.806989,939.336382 430.531343,932.722086 433.859731,949.224322 403.703871,956.111758 407.391592,975.124025 394.250087,977.926372"/>
    <poly id="422892457" type="natural.tree_row" color="140,196,107" fill="1" layer="-4.00" shape="755.310073,403.082486 732.581493,393.813840 713.501318,409.513220 714.953435,413.220519 702.621058,421.963987 695.437398,436.302468 678.162805,450.277934 675.916690,455.125405 664.819627,463.548041 665.453850,473.547267 663.228708,476.209982 670.702695,487.727775 671.818013,498.951648 668.541581,509.401365 689.136286,531.770234 692.723112,540.333766 699.506521,547.719044 726.019622,540.165373 728.089510,528.007141 742.104067,521.808649 758.329603,515.376316 774.895353,498.233207 788.262088,482.523426 793.294122,467.953609 792.185981,455.997769 785.184189,445.693348 768.464655,428.474515 780.993963,413.488696 755.310073,403.082486"/>
    <poly id="422892758" type="building.yes" color="255,230,230" fill="1" layer="-1.00" shape="510.387607,1437.702519 489.966481,1406.917436 518.454794,1388.191150 538.875869,1418.976297 510.387607,1437.702519"/>
    <poly id="426161483" type="waterway.river" color="181,209,209" fill="0" layer="-4.00" shape="437.052291,335.203754 429.443559,348.218518 413.856842,365.149781 408.048979,371.194361 379.720800,389.101834 356.487170,408.755043 330.224397,437.862295 306.636787,458.288623 286.419977,470.772669 267.658437,484.745780 255.720119,495.290369 216.946577,522.315340 207.722742,533.429366"/>
    <poly id="490625750" type="amenity.place_of_worship" color="237,199,199" fill="1" layer="-1.00" shape="164.928904,937.881450 183.780170,905.786053 188.429865,908.203933 217.108877,923.129089 245.497153,937.907376 251.382313,960.034989 197.524475,1034.896316 174.527031,1013.747825 174.106818,988.921801 175.947910,974.831414 188.781776,952.616290 164.928904,937.881450"/>
    <poly id="490625750#1" type="building.yes" color="255,230,230" fill="1" layer="-1.00" shape="164.928904,937.881450 183.780170,905.786053 188.429865,908.203933 217.108877,923.129089 245.497153,937.907376 251.382313,960.034989 197.524475,1034.896316 174.527031,1013.747825 174.106818,988.921801 175.947910,974.831414 188.781776,952.616290 164.928904,937.881450"/>
    <poly id="493151670" type="building.yes" color="255,230,230" fill="1" layer="-1.00" shape="765.127906,975.359402 758.697443,966.424686 766.719833,960.701065 762.018471,954.178652 768.230550,949.746402 779.353241,965.203456 765.127906,975.359402"/>
    <poly id="493151670#1" type="shop.pastry" color="237,199,255" fill="1" layer="-1.00" shape="765.127906,975.359402 758.697443,966.424686 766.719833,960.701065 762.018471,954.178652 768.230550,949.746402 779.353241,965.203456 765.127906,975.359402"/>
    <poly id="493152827" type="amenity.dentist" color="237,199,199" fill="1" layer="-1.00" shape="777.678881,896.300053 791.563396,886.484676 782.990489,874.457101 771.816694,882.357577 772.662993,889.264421 777.678881,896.300053"/>
    <poly id="493152827#1" type="building.yes" color="255,230,230" fill="1" layer="-1.00" shape="777.678881,896.300053 791.563396,886.484676 782.990489,874.457101 771.816694,882.357577 772.662993,889.264421 777.678881,896.300053"/>
    <poly id="493152828" type="building.yes" color="255,230,230" fill="1" layer="-1.00" shape="755.606633,906.247534 750.111725,899.673142 762.384258,889.498412 768.754448,897.112699 758.073551,905.960677 755.606633,906.247534"/>
    <poly id="493152828#1" type="shop.butcher" color="237,199,255" fill="1" layer="-1.00" shape="755.606633,906.247534 750.111725,899.673142 762.384258,889.498412 768.754448,897.112699 758.073551,905.960677 755.606633,906.247534"/>
    <poly id="493152829" type="building.yes" color="255,230,230" fill="1" layer="-1.00" shape="751.197142,980.504986 744.931322,972.481338 750.935515,967.836347 757.201333,975.859999 751.197142,980.504986"/>
    <poly id="493152829#1" type="shop.hairdresser" color="237,199,255" fill="1" layer="-1.00" shape="751.197142,980.504986 744.931322,972.481338 750.935515,967.836347 757.201333,975.859999 751.197142,980.504986"/>
    <poly id="493569464" type="building.apartments" color="255,230,230" fill="1" layer="-1.00" shape="723.564187,945.136031 759.102120,919.546160 745.673943,900.861640 710.494297,927.153747 723.564187,945.136031"/>
    <poly id="493615565" type="amenity.pub" color="237,199,199" fill="1" layer="-1.00" shape="732.352534,974.645317 740.808171,968.471096 734.474760,959.881156 726.019120,966.055383 732.352534,974.645317"/>
    <poly id="493615565#1" type="building.yes" color="255,230,230" fill="1" layer="-1.00" shape="732.352534,974.645317 740.808171,968.471096 734.474760,959.881156 726.019120,966.055383 732.352534,974.645317"/>
    <poly id="493615567" type="amenity.doctors" color="237,199,199" fill="1" layer="-1.00" shape="735.627324,978.614134 745.716240,983.879517 747.993769,979.553650 737.904849,974.288264 735.627324,978.614134"/>
    <poly id="493615567#1" type="building.yes" color="255,230,230" fill="1" layer="-1.00" shape="735.627324,978.614134 745.716240,983.879517 747.993769,979.553650 737.904849,974.288264 735.627324,978.614134"/>
    <poly id="531004952" type="building.apartments" color="255,230,230" fill="1" layer="-1.00" shape="647.160957,424.326642 654.725514,418.798165 675.169000,446.489302 667.604452,452.017762 647.160957,424.326642"/>
    <poly id="531004953" type="building.apartments" color="255,230,230" fill="1" layer="-1.00" shape="633.204214,447.328953 642.278259,442.380592 667.422382,488.117766 658.339347,493.054924 633.204214,447.328953"/>
    <poly id="531004954" type="building.apartments" color="255,230,230" fill="1" layer="-1.00" shape="626.708716,443.218384 621.548241,435.992914 635.019927,426.450610 640.189523,433.676175 626.708716,443.218384"/>
    <poly id="531004955" type="building.apartments" color="255,230,230" fill="1" layer="-1.00" shape="580.682779,424.975804 589.234016,417.438139 601.767174,431.533152 593.206814,439.070718 580.682779,424.975804"/>
    <poly id="531013193" type="amenity.parking" color="184,184,179" fill="1" layer="-1.00" shape="660.891435,422.062663 675.133720,412.117436 689.864911,433.021459 675.622641,442.966663 660.891435,422.062663"/>
    <poly id="531013195" type="amenity.parking" color="184,184,179" fill="1" layer="-1.00" shape="655.669052,456.495001 661.701946,452.693151 648.898130,432.572951 642.865123,436.385900 655.669052,456.495001"/>
    <poly id="531013196" type="amenity.parking" color="184,184,179" fill="1" layer="-1.00" shape="616.539712,466.223770 628.476523,458.740788 621.059129,447.023934 617.404488,449.329125 611.956032,440.725594 603.682870,445.914577 616.539712,466.223770"/>
    <poly id="531013197" type="amenity.parking" color="184,184,179" fill="1" layer="-1.00" shape="589.832668,402.592809 609.158920,426.890275 624.176796,415.055817 604.841430,390.758231 589.832668,402.592809"/>
    <poly id="531013199" type="amenity.waste_disposal" color="237,199,199" fill="1" layer="-1.00" shape="610.385367,430.340295 608.725400,428.316879 612.018616,425.631119 613.678583,427.654536 610.385367,430.340295"/>
    <poly id="531013204" type="amenity.bicycle_parking" color="237,199,199" fill="1" layer="-1.00" shape="687.707758,428.597565 695.277632,423.468454 692.064292,418.779325 684.494416,423.908438 687.707758,428.597565"/>
    <poly id="531013205" type="amenity.parking" color="184,184,179" fill="1" layer="-1.00" shape="631.361148,462.495084 624.694443,465.769591 630.371069,477.225749 633.709034,475.582995 638.624602,485.501279 641.962565,483.858528 631.361148,462.495084"/>
    <poly id="544688101" type="leisure.park" color="207,245,201" fill="1" layer="-2.00" shape="692.512678,621.219653 694.248460,612.485379 705.849666,606.674046 720.367809,617.405486 712.505122,628.332445 700.739220,620.877147 692.512678,621.219653"/>
    <poly id="544688103" type="leisure.park" color="207,245,201" fill="1" layer="-2.00" shape="483.346192,913.673937 496.401099,901.820492 503.996166,917.831243 508.992337,930.755945 472.057139,958.429622 463.568665,948.033567 486.412375,932.769017 492.107270,925.148464 483.346192,913.673937"/>
    <poly id="544689653" type="waterway.river" color="181,209,209" fill="0" layer="-4.00" shape="426.211027,1049.437468 413.600486,1073.062989"/>
    <poly id="544689654" type="waterway.river" color="181,209,209" fill="0" layer="-4.00" shape="441.377986,1016.176022 433.477142,1021.623806 429.573197,1026.167097 424.423403,1032.151411 426.211027,1049.437468"/>
    <poly id="544689658" type="amenity.parking" color="184,184,179" fill="1" layer="-1.00" shape="491.070668,845.648132 581.190672,844.260076 563.493078,878.661622 505.099583,878.856351 491.070668,845.648132"/>
    <poly id="544690596" type="leisure.park" color="207,245,201" fill="1" layer="-2.00" shape="245.322335,1187.479053 238.938304,1183.203443 243.994685,1168.822126 242.566327,1155.931643 248.042663,1151.092740 263.805438,1163.332666 245.322335,1187.479053"/>
    <poly id="544690597" type="amenity.parking" color="184,184,179" fill="1" layer="-1.00" shape="571.004392,1239.485150 526.773547,1205.754451 508.006270,1231.871831 505.363434,1220.999346 493.391984,1202.672972 495.413497,1178.369390 583.282458,1135.379070 627.912284,1161.782594 578.232219,1232.833187 571.004392,1239.485150"/>
    <poly id="544691356" type="leisure.pitch" color="207,245,201" fill="1" layer="-2.00" shape="523.547725,1364.316275 553.051045,1383.487285 570.971800,1354.267442 540.895548,1334.880154 523.547725,1364.316275"/>
    <poly id="544691356#1" type="sport.tennis" color="79,230,125" fill="1" layer="-2.00" shape="523.547725,1364.316275 553.051045,1383.487285 570.971800,1354.267442 540.895548,1334.880154 523.547725,1364.316275"/>
    <poly id="544692475" type="landuse.forest" color="140,196,107" fill="1" layer="-3.00" shape="829.213603,877.607592 812.711024,857.850847 771.673580,845.954956 813.335521,696.968219 897.232306,775.313385 924.960295,807.434060 923.927748,808.511059 902.728647,822.525969 887.789091,804.425621 852.762941,824.163787 854.166971,836.654866 865.093472,849.736624 857.386485,855.862477 829.213603,877.607592"/>
    <poly id="544695130" type="amenity.parking" color="184,184,179" fill="1" layer="-1.00" shape="263.571943,955.604035 323.520025,982.717987 318.539339,991.066393 312.390790,998.427618 308.588346,994.265366 306.478817,1009.684106 297.345393,1009.463733 297.830565,1003.578962 268.334160,996.875373 242.185445,991.301874 239.817876,990.746890 263.571943,955.604035"/>
    <poly id="544695131" type="amenity.bicycle_parking" color="237,199,199" fill="1" layer="-1.00" shape="372.295668,1046.237609 351.770050,1020.509465 361.444783,1009.932273 375.045099,1044.078945 372.295668,1046.237609"/>
    <poly id="544695133" type="building.apartments" color="255,230,230" fill="1" layer="-1.00" shape="448.299508,905.186405 463.013726,902.088635 454.027753,859.756359 439.999336,838.870515 401.788554,829.099589 397.163113,847.045210 433.343563,856.297587 440.108142,866.599472 448.299508,905.186405"/>
    <poly id="544695134" type="building.apartments" color="255,230,230" fill="1" layer="-1.00" shape="348.466197,808.603371 360.661498,805.514625 354.864027,782.822131 342.668697,785.910885 348.466197,808.603371"/>
    <poly id="544695322" type="building.yes" color="255,230,230" fill="1" layer="-1.00" shape="444.624761,1105.080642 440.183655,1096.143015 450.151044,1091.225213 454.601268,1100.162933 444.624761,1105.080642"/>
    <poly id="544695322#1" type="shop.tobacco" color="237,199,255" fill="1" layer="-1.00" shape="444.624761,1105.080642 440.183655,1096.143015 450.151044,1091.225213 454.601268,1100.162933 444.624761,1105.080642"/>
    <poly id="544700379" type="waterway.drain" color="181,209,209" fill="0" layer="-4.00" shape="587.530223,595.179917 561.895151,598.760669 507.176193,630.589379 494.943747,638.480054 481.855707,647.083480 464.036877,650.295695 449.495307,662.012959 405.997614,743.061333 386.326878,772.930224 376.724484,789.275491 389.452503,814.463253 458.664579,834.912166 473.610616,840.024094 482.376168,846.274711 468.453888,867.691550 465.836142,876.106867 469.859803,900.057947 481.413454,914.409629 489.755505,924.848663 484.996526,931.945804 462.946433,946.297388 457.011982,952.251990 451.774774,964.501962 438.134783,985.056435 431.263601,1000.207758 426.464252,1022.976362 429.573197,1026.167097"/>
    <poly id="544700381" type="building.apartments" color="255,230,230" fill="1" layer="-1.00" shape="420.168165,1000.922326 422.652244,991.208051 391.670207,983.347456 388.598202,995.374169 391.220324,996.031448 390.651466,998.255331 392.845533,998.819786 392.238475,1001.220762 396.508400,1002.304178 398.281298,995.378068 420.168165,1000.922326"/>
    <poly id="544700382" type="building.yes" color="255,230,230" fill="1" layer="-1.00" shape="403.900044,1037.678079 418.813202,1035.702356 420.563385,1047.364830 412.068359,1059.594741 407.806952,1060.485627 403.900044,1037.678079"/>
    <poly id="544700382#1" type="shop.motorcycle" color="237,199,255" fill="1" layer="-1.00" shape="403.900044,1037.678079 418.813202,1035.702356 420.563385,1047.364830 412.068359,1059.594741 407.806952,1060.485627 403.900044,1037.678079"/>
    <poly id="544702957" type="building.apartments" color="255,230,230" fill="1" layer="-1.00" shape="452.062528,1236.659865 448.093099,1216.591208 463.444851,1213.577194 467.414141,1233.656948 452.062528,1236.659865"/>
    <poly id="544702958" type="building.apartments" color="255,230,230" fill="1" layer="-1.00" shape="467.481742,1217.065200 481.458847,1227.990751 490.115094,1217.026841 476.128963,1206.090099 467.481742,1217.065200"/>
    <poly id="544915154" type="building.public" color="255,230,230" fill="1" layer="-1.00" shape="204.821756,1116.563644 209.261798,1095.998649 220.436848,1098.401204 220.933078,1096.132254 243.365296,1100.938191 242.964445,1102.775496 253.019270,1104.934480 248.454888,1126.086101 238.482003,1123.950087 238.013993,1126.130577 214.991327,1121.041735 215.441293,1118.838889 204.821756,1116.563644"/>