<?xml version="1.0" encoding="UTF-8"?>

<!-- generated on Thu Nov 14 14:01:53 2019 by Eclipse SUMO duarouter Version 1.3.1
<configuration xmlns:xsi="http://www.w3.org/2001/XMLSchema-instance" xsi:noNamespaceSchemaLocation="http://sumo.dlr.de/xsd/duarouterConfiguration.xsd">

    <input>
        <net-file value="/home/shuto/Sumo/2019-11-14-14-01-41/osm.net.xml"/>
        <route-files value="/home/shuto/Sumo/2019-11-14-14-01-41/osm.passenger.trips.xml"/>
    </input>

    <output>
        <output-file value="/home/shuto/Sumo/2019-11-14-14-01-41/osm.passenger.trips.xml.tmp"/>
        <write-trips value="true"/>
    </output>

    <time>
        <begin value="0"/>
        <end value="3600.0"/>
    </time>

    <report>
        <no-warnings value="true"/>
        <ignore-errors value="true"/>
        <no-step-log value="true"/>
    </report>

</configuration>
-->

<routes xmlns:xsi="http://www.w3.org/2001/XMLSchema-instance" xsi:noNamespaceSchemaLocation="http://sumo.dlr.de/xsd/routes_file.xsd">
    <vType id="veh_passenger" vClass="passenger"/>
    <trip id="veh0" type="veh_passenger" depart="0.00" departLane="best" from="121218332#0" to="-121367216#1"/>
    <trip id="veh1" type="veh_passenger" depart="3.98" departLane="best" from="-121366758" to="-121373376#1"/>
    <trip id="veh2" type="veh_passenger" depart="7.96" departLane="best" from="121373143#2" to="121367513#2"/>
    <trip id="veh3" type="veh_passenger" depart="11.95" departLane="best" from="-191377126#4" to="121369965#6"/>
    <trip id="veh4" type="veh_passenger" depart="15.93" departLane="best" from="407183054#0" to="-121218332#12"/>
    <trip id="veh5" type="veh_passenger" depart="19.91" departLane="best" from="351590057#1" to="121373339#3"/>
    <trip id="veh6" type="veh_passenger" depart="23.89" departLane="best" from="-544689656#0" to="-121372713"/>
    <trip id="veh8" type="veh_passenger" depart="31.86" departLane="best" from="467169134#0" to="121370401"/>
    <trip id="veh9" type="veh_passenger" depart="35.84" departLane="best" from="121368359#0" to="548515316"/>
    <trip id="veh10" type="veh_passenger" depart="39.82" departLane="best" from="-546249423#1" to="121367634#1"/>
    <trip id="veh11" type="veh_passenger" depart="43.81" departLane="best" from="467169132#1" to="121370991#5"/>
    <trip id="veh12" type="veh_passenger" depart="47.79" departLane="best" from="473245539" to="121369732"/>
    <trip id="veh13" type="veh_passenger" depart="51.77" departLane="best" departSpeed="max" from="244029331#0" to="-121367513#4"/>
    <trip id="veh14" type="veh_passenger" depart="55.75" departLane="best" from="-244029327#4" to="-407183054#0"/>
    <trip id="veh15" type="veh_passenger" depart="59.74" departLane="best" from="-121369965#2" to="-245427617#1"/>
    <trip id="veh16" type="veh_passenger" depart="63.72" departLane="best" from="121372991#1" to="-544702956"/>
    <trip id="veh17" type="veh_passenger" depart="67.70" departLane="best" from="-546247902#1" to="-121373653#1"/>
    <trip id="veh18" type="veh_passenger" depart="71.68" departLane="best" from="-256582586#0" to="546251307#1"/>
    <trip id="veh19" type="veh_passenger" depart="75.67" departLane="best" from="121373143#1" to="121370890"/>
    <trip id="veh20" type="veh_passenger" depart="79.65" departLane="best" from="-121373049#2" to="244029327#3"/>
    <trip id="veh21" type="veh_passenger" depart="83.63" departLane="best" from="-121372966#1" to="-546249423#2"/>
    <trip id="veh22" type="veh_passenger" depart="87.61" departLane="best" from="572695748#1-AddedOnRampEdge" to="121371516"/>
    <trip id="veh23" type="veh_passenger" depart="91.60" departLane="best" from="467169133#0" to="245427638#2"/>
    <trip id="veh24" type="veh_passenger" depart="95.58" departLane="best" from="-245427606" to="-121367216#2"/>
    <trip id="veh25" type="veh_passenger" depart="99.56" departLane="best" from="-467169132#6" to="-256582586#1"/>
    <trip id="veh26" type="veh_passenger" depart="103.54" departLane="best" from="-121373653#2" to="546251307#4"/>
    <trip id="veh27" type="veh_passenger" depart="107.53" departLane="best" from="544689656#0" to="-467169132#5"/>
    <trip id="veh29" type="veh_passenger" depart="115.49" departLane="best" from="546249423#1" to="121366679"/>
    <trip id="veh30" type="veh_passenger" depart="119.47" departLane="best" from="-256582584" to="-245427638#0"/>
    <trip id="veh31" type="veh_passenger" depart="123.46" departLane="best" from="121370991#4" to="544702954"/>
    <trip id="veh32" type="veh_passenger" depart="127.44" departLane="best" from="-548513652" to="-191377126#3"/>
    <trip id="veh33" type="veh_passenger" depart="131.42" departLane="best" from="320515207" to="121218332#0"/>
    <trip id="veh34" type="veh_passenger" depart="135.40" departLane="best" departSpeed="max" from="572695748#0" to="467169134#2"/>
    <trip id="veh35" type="veh_passenger" depart="139.39" departLane="best" from="-121218332#17" to="191377126#2"/>
    <trip id="veh36" type="veh_passenger" depart="143.37" departLane="best" from="-256582586#0" to="121371527"/>
    <trip id="veh37" type="veh_passenger" depart="147.35" departLane="best" from="-121370991#1" to="121218332#18"/>
    <trip id="veh38" type="veh_passenger" depart="151.33" departLane="best" from="121366650" to="546251307#5"/>
    <trip id="veh39" type="veh_passenger" depart="155.32" departLane="best" from="121367216#1" to="-121373143#2"/>
    <trip id="veh41" type="veh_passenger" depart="163.28" departLane="best" from="121371723" to="-121372535#1"/>
    <trip id="veh42" type="veh_passenger" depart="167.26" departLane="best" from="245427638#1" to="121367471#0"/>
    <trip id="veh43" type="veh_passenger" depart="171.25" departLane="best" from="256582582" to="121366884"/>
    <trip id="veh44" type="veh_passenger" depart="175.23" departLane="best" from="-121218332#0" to="-467169133#2"/>
    <trip id="veh45" type="veh_passenger" depart="179.21" departLane="best" from="544689656#1" to="546251307#5"/>
    <trip id="veh46" type="veh_passenger" depart="183.19" departLane="best" from="-121369965#6" to="121366792#0"/>
    <trip id="veh47" type="veh_passenger" depart="187.18" departLane="best" from="-121368473" to="245427621"/>
    <trip id="veh49" type="veh_passenger" depart="195.14" departLane="best" from="121366884" to="121367634#0"/>
    <trip id="veh51" type="veh_passenger" depart="203.11" departLane="best" from="121218332#1" to="-121373653#3"/>
    <trip id="veh52" type="veh_passenger" depart="207.09" departLane="best" from="121368745" to="244029327#3"/>
    <trip id="veh53" type="veh_passenger" depart="211.07" departLane="best" from="572695748#3" to="121372120#1"/>
    <trip id="veh54" type="veh_passenger" depart="215.05" departLane="best" from="121218332#5" to="121366882#3"/>
    <trip id="veh55" type="veh_passenger" depart="219.04" departLane="best" from="-121370991#8" to="-244029327#2"/>
    <trip id="veh57" type="veh_passenger" depart="227.00" departLane="best" from="-245427613" to="-191377126#4"/>
    <trip id="veh58" type="veh_passenger" depart="230.98" departLane="best" from="-121368796" to="121371302#0"/>
    <trip id="veh59" type="veh_passenger" depart="234.97" departLane="best" from="-245427606" to="546247902#0"/>
    <trip id="veh61" type="veh_passenger" depart="242.93" departLane="best" from="-191377126#0" to="-121371313"/>
    <trip id="veh62" type="veh_passenger" depart="246.91" departLane="best" from="546251307#1" to="121368473"/>
    <trip id="veh63" type="veh_passenger" depart="250.90" departLane="best" from="121366882#2" to="256582571#2"/>
    <trip id="veh64" type="veh_passenger" depart="254.88" departLane="best" from="361084526" to="-121373339#1"/>
    <trip id="veh65" type="veh_passenger" depart="258.86" departLane="best" from="-121370084#0" to="121218332#16"/>
    <trip id="veh66" type="veh_passenger" depart="262.84" departLane="best" from="121218332#1" to="121366753"/>
    <trip id="veh67" type="veh_passenger" depart="266.83" departLane="best" from="244029331#5" to="121373049#0"/>
    <trip id="veh68" type="veh_passenger" depart="270.81" departLane="best" departSpeed="max" from="572695748#0" to="-121370084#1"/>
    <trip id="veh69" type="veh_passenger" depart="274.79" departLane="best" from="-548515314" to="-473245539"/>
    <trip id="veh70" type="veh_passenger" depart="278.77" departLane="best" from="-121373339#0" to="121366620#2"/>
    <trip id="veh71" type="veh_passenger" depart="282.76" departLane="best" from="121218332#0" to="-351588704#4"/>
    <trip id="veh72" type="veh_passenger" depart="286.74" departLane="best" from="-245427638#2" to="546249427"/>
    <trip id="veh73" type="veh_passenger" depart="290.72" departLane="best" from="121218332#8" to="467169134#2"/>
    <trip id="veh74" type="veh_passenger" depart="294.70" departLane="best" from="660350118" to="467169131#0"/>
    <trip id="veh75" type="veh_passenger" depart="298.69" departLane="best" departSpeed="max" from="572695748#0" to="546249429"/>
    <trip id="veh76" type="veh_passenger" depart="302.67" departLane="best" from="467169134#1" to="-121372991#1"/>
    <trip id="veh77" type="veh_passenger" depart="306.65" departLane="best" departSpeed="max" from="121366894" to="-121373653#4"/>
    <trip id="veh78" type="veh_passenger" depart="310.63" departLane="best" from="-548513669" to="-121367653#0"/>
    <trip id="veh80" type="veh_passenger" depart="318.60" departLane="best" from="-256582584" to="256582571#1"/>
    <trip id="veh81" type="veh_passenger" depart="322.58" departLane="best" from="121366665#0" to="121218332#1"/>
    <trip id="veh83" type="veh_passenger" depart="330.55" departLane="best" from="121369965#6" to="121373653#4"/>
    <trip id="veh84" type="veh_passenger" depart="334.53" departLane="best" from="-121372622" to="-448921074#0"/>
    <trip id="veh85" type="veh_passenger" depart="338.51" departLane="best" departSpeed="max" from="572695748#0" to="121369965#1"/>
    <trip id="veh86" type="veh_passenger" depart="342.49" departLane="best" from="121367216#4" to="467169132#9"/>
    <trip id="veh87" type="veh_passenger" depart="346.48" departLane="best" from="-121372826#0" to="546251307#5"/>
    <trip id="veh88" type="veh_passenger" depart="350.46" departLane="best" from="-121369965#2" to="-121373283#1"/>
    <trip id="veh89" type="veh_passenger" depart="354.44" departLane="best" from="121371123" to="121373049#1"/>
    <trip id="veh90" type="veh_passenger" depart="358.42" departLane="best" from="-245427623#0" to="-121370991#7"/>
    <trip id="veh91" type="veh_passenger" depart="362.41" departLane="best" from="544702952#0" to="-245427638#0"/>
    <trip id="veh92" type="veh_passenger" depart="366.39" departLane="best" from="121371123" to="121370991#5"/>
    <trip id="veh93" type="veh_passenger" depart="370.37" departLane="best" from="-660350118" to="121369965#2"/>
    <trip id="veh94" type="veh_passenger" depart="374.35" departLane="best" from="121367634#4" to="546251307#1"/>
    <trip id="veh95" type="veh_passenger" depart="378.34" departLane="best" from="-121373446#1" to="121373653#3"/>
    <trip id="veh96" type="veh_passenger" depart="382.32" departLane="best" from="-245427625#0" to="-546249431"/>
    <trip id="veh97" type="veh_passenger" depart="386.30" departLane="best" from="121373376#2" to="-448921077"/>
    <trip id="veh98" type="veh_passenger" depart="390.28" departLane="best" from="-467169132#7" to="244029331#9"/>
    <trip id="veh99" type="veh_passenger" depart="394.27" departLane="best" from="-121369732" to="-121373653#4"/>
    <trip id="veh100" type="veh_passenger" depart="398.25" departLane="best" from="544701471" to="544693025"/>
    <trip id="veh101" type="veh_passenger" depart="402.23" departLane="best" from="-546247902#1" to="-121372826#0"/>
    <trip id="veh104" type="veh_passenger" depart="414.18" departLane="best" from="121373339#2" to="546251307#2"/>
    <trip id="veh105" type="veh_passenger" depart="418.16" departLane="best" from="-121371322#1" to="-121370991#4"/>
    <trip id="veh106" type="veh_passenger" depart="422.14" departLane="best" from="-256582600" to="121370484"/>
    <trip id="veh107" type="veh_passenger" depart="426.13" departLane="best" departSpeed="max" from="244029331#0" to="-121373446#0"/>
    <trip id="veh108" type="veh_passenger" depart="430.11" departLane="best" from="121372991#0" to="-256582582"/>
    <trip id="veh109" type="veh_passenger" depart="434.09" departLane="best" departSpeed="max" from="121366894" to="546247902#0"/>
    <trip id="veh110" type="veh_passenger" depart="438.07" departLane="best" from="467169133#2" to="-121370013#2"/>
    <trip id="veh111" type="veh_passenger" depart="442.06" departLane="best" from="121218332#1" to="-351588704#2"/>
    <trip id="veh112" type="veh_passenger" depart="446.04" departLane="best" from="-121218332#10" to="245427634#2"/>
    <trip id="veh113" type="veh_passenger" depart="450.02" departLane="best" from="121372991#2" to="-256582578"/>
    <trip id="veh114" type="veh_passenger" depart="454.00" departLane="best" from="244029331#9" to="121367634#1"/>
    <trip id="veh115" type="veh_passenger" depart="457.99" departLane="best" from="-121369965#0" to="544701868#1"/>
    <trip id="veh116" type="veh_passenger" depart="461.97" departLane="best" from="544916643" to="121367513#3"/>
    <trip id="veh117" type="veh_passenger" depart="465.95" departLane="best" from="467169132#4" to="121369965#11"/>
    <trip id="veh118" type="veh_passenger" depart="469.93" departLane="best" from="-121372120#1" to="-121371163"/>
    <trip id="veh119" type="veh_passenger" depart="473.92" departLane="best" from="-467169132#1" to="544702955"/>
    <trip id="veh120" type="veh_passenger" depart="477.90" departLane="best" from="351588704#2" to="467169134#2"/>
    <trip id="veh121" type="veh_passenger" depart="481.88" departLane="best" from="544702955" to="-121373653#2"/>
    <trip id="veh122" type="veh_passenger" depart="485.86" departLane="best" from="-245427638#2" to="-121370484"/>
    <trip id="veh123" type="veh_passenger" depart="489.85" departLane="best" from="256582584" to="544701869"/>
    <trip id="veh125" type="veh_passenger" depart="497.81" departLane="best" from="-121372622" to="546249430#1"/>
    <trip id="veh127" type="veh_passenger" depart="505.78" departLane="best" from="407183054#1" to="544701868#0"/>
    <trip id="veh128" type="veh_passenger" depart="509.76" departLane="best" from="-121366650" to="244029331#3"/>
    <trip id="veh129" type="veh_passenger" depart="513.74" departLane="best" from="-467169137" to="546249431"/>
    <trip id="veh130" type="veh_passenger" depart="517.72" departLane="best" from="351588704#6" to="467169136"/>
    <trip id="veh131" type="veh_passenger" depart="521.71" departLane="best" from="407183054#1" to="-256582586#0"/>
    <trip id="veh132" type="veh_passenger" depart="525.69" departLane="best" from="256582600" to="-121370987"/>
    <trip id="veh133" type="veh_passenger" depart="529.67" departLane="best" departSpeed="max" from="473245542" to="467169134#0"/>
    <trip id="veh134" type="veh_passenger" depart="533.65" departLane="best" from="121366721#0" to="-467169131#1"/>
    <trip id="veh135" type="veh_passenger" depart="537.64" departLane="best" from="-121218332#9" to="-121373339#3"/>
    <trip id="veh136" type="veh_passenger" depart="541.62" departLane="best" departSpeed="max" from="572695748#0" to="-351588704#4"/>
    <trip id="veh137" type="veh_passenger" depart="545.60" departLane="best" from="121373049#1" to="-548513652"/>
    <trip id="veh138" type="veh_passenger" depart="549.58" departLane="best" departSpeed="max" from="572695748#0" to="121367216#4"/>
    <trip id="veh139" type="veh_passenger" depart="553.57" departLane="best" from="546251307#2" to="-121370991#4"/>
    <trip id="veh140" type="veh_passenger" depart="557.55" departLane="best" departSpeed="max" from="572695748#0" to="-121373143#2"/>
    <trip id="veh141" type="veh_passenger" depart="561.53" departLane="best" departSpeed="max" from="572695748#0" to="-256582584"/>
    <trip id="veh142" type="veh_passenger" depart="565.51" departLane="best" from="244029331#4" to="-467169132#5"/>
    <trip id="veh143" type="veh_passenger" depart="569.50" departLane="best" from="121371516" to="121366882#3"/>
    <trip id="veh144" type="veh_passenger" depart="573.48" departLane="best" from="-546249425#1" to="121369732"/>
    <trip id="veh146" type="veh_passenger" depart="581.44" departLane="best" from="-121218332#1" to="546249428"/>
    <trip id="veh147" type="veh_passenger" depart="585.43" departLane="best" from="121368473" to="191377126#1"/>
    <trip id="veh148" type="veh_passenger" depart="589.41" departLane="best" from="121373339#2" to="-467169136"/>
    <trip id="veh149" type="veh_passenger" depart="593.39" departLane="best" departSpeed="max" from="244029331#0" to="-448921077"/>
    <trip id="veh150" type="veh_passenger" depart="597.37" departLane="best" from="-467169132#2" to="-550975628#1"/>
    <trip id="veh151" type="veh_passenger" depart="601.36" departLane="best" from="-548515314" to="-407183054#6"/>
    <trip id="veh152" type="veh_passenger" depart="605.34" departLane="best" from="544916640" to="121370991#3"/>
    <trip id="veh153" type="veh_passenger" depart="609.32" departLane="best" from="-467169125" to="121367513#4"/>
    <trip id="veh155" type="veh_passenger" depart="617.29" departLane="best" from="121218332#14" to="121369965#1"/>
    <trip id="veh157" type="veh_passenger" depart="625.25" departLane="best" from="121218332#8" to="-121373653#4"/>
    <trip id="veh158" type="veh_passenger" depart="629.23" departLane="best" from="121366882#2" to="544915153"/>
    <trip id="veh159" type="veh_passenger" depart="633.22" departLane="best" from="351588704#2" to="-121373049#1"/>
    <trip id="veh160" type="veh_passenger" depart="637.20" departLane="best" from="-121369965#5" to="121366882#3"/>
    <trip id="veh162" type="veh_passenger" depart="645.16" departLane="best" from="448921074#1" to="244029331#9"/>
    <trip id="veh163" type="veh_passenger" depart="649.15" departLane="best" from="121373376#3" to="-244029327#2"/>
    <trip id="veh164" type="veh_passenger" depart="653.13" departLane="best" from="-121373376#1" to="-121366650"/>
    <trip id="veh165" type="veh_passenger" depart="657.11" departLane="best" from="-245427634#2" to="121366792#0"/>
    <trip id="veh166" type="veh_passenger" depart="661.09" departLane="best" from="467169134#2" to="-121369732"/>
    <trip id="veh167" type="veh_passenger" depart="665.08" departLane="best" departSpeed="max" from="121366894" to="-245427634#1"/>
    <trip id="veh169" type="veh_passenger" depart="673.04" departLane="best" from="245427623#0" to="245427634#1"/>
    <trip id="veh170" type="veh_passenger" depart="677.02" departLane="best" from="-121370890" to="121218332#10"/>
    <trip id="veh171" type="veh_passenger" depart="681.01" departLane="best" from="-121373143#0" to="546251307#5"/>
    <trip id="veh172" type="veh_passenger" depart="684.99" departLane="best" from="-245427638#2" to="467169132#6"/>
    <trip id="veh173" type="veh_passenger" depart="688.97" departLane="best" from="121371123" to="546251307#5"/>
    <trip id="veh174" type="veh_passenger" depart="692.95" departLane="best" from="544702952#1" to="121370991#1"/>
    <trip id="veh175" type="veh_passenger" depart="696.94" departLane="best" departSpeed="max" from="244029331#0" to="121366882#2"/>
    <trip id="veh176" type="veh_passenger" depart="700.92" departLane="best" from="467169132#1" to="121367513#4"/>
    <trip id="veh177" type="veh_passenger" depart="704.90" departLane="best" from="121366884" to="-256582571#2"/>
    <trip id="veh178" type="veh_passenger" depart="708.88" departLane="best" from="-245427638#0" to="121371322#1"/>
    <trip id="veh180" type="veh_passenger" depart="716.85" departLane="best" from="121372826#1" to="-351588704#1"/>
    <trip id="veh181" type="veh_passenger" depart="720.83" departLane="best" from="-121369965#10" to="-351590057#1"/>
    <trip id="veh182" type="veh_passenger" depart="724.81" departLane="best" from="-256582600" to="-467169132#9"/>
    <trip id="veh183" type="veh_passenger" depart="728.80" departLane="best" from="121368796" to="-121371516"/>
    <trip id="veh184" type="veh_passenger" depart="732.78" departLane="best" from="-245427617#0" to="121373339#0"/>
    <trip id="veh185" type="veh_passenger" depart="736.76" departLane="best" departSpeed="max" from="244029331#0" to="-121367711#1"/>
    <trip id="veh186" type="veh_passenger" depart="740.74" departLane="best" from="-550975628#0" to="121367513#0"/>
    <trip id="veh187" type="veh_passenger" depart="744.73" departLane="best" from="-572695734" to="-121373482"/>
    <trip id="veh188" type="veh_passenger" depart="748.71" departLane="best" from="-732644866" to="544916643"/>
    <trip id="veh189" type="veh_passenger" depart="752.69" departLane="best" from="121370991#4" to="121373339#1"/>
    <trip id="veh190" type="veh_passenger" depart="756.67" departLane="best" from="467169141" to="245427625#1"/>
    <trip id="veh191" type="veh_passenger" depart="760.66" departLane="best" from="-544701870#2" to="244029331#9"/>
    <trip id="veh192" type="veh_passenger" depart="764.64" departLane="best" from="467169137" to="546251307#5"/>
    <trip id="veh193" type="veh_passenger" depart="768.62" departLane="best" from="121218332#2" to="-121367216#0"/>
    <trip id="veh195" type="veh_passenger" depart="776.59" departLane="best" from="-548515317" to="-121372991#1"/>
    <trip id="veh196" type="veh_passenger" depart="780.57" departLane="best" from="121366882#1" to="-121371163"/>
    <trip id="veh197" type="veh_passenger" depart="784.55" departLane="best" from="121372535#1" to="-121366884"/>
    <trip id="veh198" type="veh_passenger" depart="788.53" departLane="best" from="-121366884" to="121371723"/>
    <trip id="veh199" type="veh_passenger" depart="792.52" departLane="best" from="-121371322#2" to="121366753"/>
    <trip id="veh200" type="veh_passenger" depart="796.50" departLane="best" from="-121367634#1" to="-546249423#2"/>
    <trip id="veh201" type="veh_passenger" depart="800.48" departLane="best" from="-121373653#3" to="-467169134#1"/>
    <trip id="veh202" type="veh_passenger" depart="804.46" departLane="best" from="245427638#0" to="-546249423#2"/>
    <trip id="veh203" type="veh_passenger" depart="808.45" departLane="best" from="245427623#1" to="448921077"/>
    <trip id="veh206" type="veh_passenger" depart="820.39" departLane="best" from="121373143#4" to="245427606"/>
    <trip id="veh207" type="veh_passenger" depart="824.38" departLane="best" from="-121371123" to="121372991#1"/>
    <trip id="veh208" type="veh_passenger" depart="828.36" departLane="best" from="121370013#4" to="-191377126#2"/>
    <trip id="veh209" type="veh_passenger" depart="832.34" departLane="best" departSpeed="max" from="244029331#0" to="245427625#2"/>
    <trip id="veh210" type="veh_passenger" depart="836.32" departLane="best" from="245427617#1" to="-121370991#3"/>
    <trip id="veh211" type="veh_passenger" depart="840.31" departLane="best" from="448921074#1" to="546251307#5"/>
    <trip id="veh212" type="veh_passenger" depart="844.29" departLane="best" from="-121370987" to="-121366758"/>
    <trip id="veh214" type="veh_passenger" depart="852.25" departLane="best" departSpeed="max" from="244029331#0" to="-121369965#1"/>
    <trip id="veh215" type="veh_passenger" depart="856.24" departLane="best" from="191377126#4" to="121371105#0"/>
    <trip id="veh216" type="veh_passenger" depart="860.22" departLane="best" from="-121370401" to="245427638#0"/>
    <trip id="veh217" type="veh_passenger" depart="864.20" departLane="best" from="467169134#2" to="121370084#1"/>
    <trip id="veh218" type="veh_passenger" depart="868.18" departLane="best" from="-121370991#8" to="572695734"/>
    <trip id="veh219" type="veh_passenger" depart="872.17" departLane="best" from="256582586#1" to="-544701868#1"/>
    <trip id="veh220" type="veh_passenger" depart="876.15" departLane="best" from="121218332#13" to="-546247902#1"/>
    <trip id="veh221" type="veh_passenger" depart="880.13" departLane="best" from="-121370791" to="546251307#5"/>
    <trip id="veh222" type="veh_passenger" depart="884.11" departLane="best" departSpeed="max" from="244029331#0" to="121218332#2"/>
    <trip id="veh223" type="veh_passenger" depart="888.10" departLane="best" from="244029331#6" to="546251307#5"/>
    <trip id="veh224" type="veh_passenger" depart="892.08" departLane="best" from="-256582598" to="351588704#2"/>
    <trip id="veh225" type="veh_passenger" depart="896.06" departLane="best" from="121368473" to="121366792#0"/>
    <trip id="veh226" type="veh_passenger" depart="900.04" departLane="best" from="121218332#2" to="244029327#4"/>
    <trip id="veh227" type="veh_passenger" depart="904.03" departLane="best" from="-256582586#1" to="467169132#8"/>
    <trip id="veh228" type="veh_passenger" depart="908.01" departLane="best" from="467169132#1" to="-121369965#6"/>
    <trip id="veh229" type="veh_passenger" depart="911.99" departLane="best" from="544701868#0" to="-245427634#1"/>
    <trip id="veh230" type="veh_passenger" depart="915.97" departLane="best" from="121366867" to="121370987"/>
    <trip id="veh231" type="veh_passenger" depart="919.96" departLane="best" from="467169135" to="-121373230"/>
    <trip id="veh232" type="veh_passenger" depart="923.94" departLane="best" from="-121373653#3" to="256582600"/>
    <trip id="veh233" type="veh_passenger" depart="927.92" departLane="best" departSpeed="max" from="244029331#0" to="-351588704#2"/>
    <trip id="veh234" type="veh_passenger" depart="931.90" departLane="best" from="-121218332#16" to="546251307#5"/>
    <trip id="veh235" type="veh_passenger" depart="935.89" departLane="best" from="-121369965#6" to="191377126#1"/>
    <trip id="veh236" type="veh_passenger" depart="939.87" departLane="best" departSpeed="max" from="121366894" to="245427617#1"/>
    <trip id="veh237" type="veh_passenger" depart="943.85" departLane="best" from="191377126#4" to="121371898"/>
    <trip id="veh238" type="veh_passenger" depart="947.83" departLane="best" departSpeed="max" from="121366894" to="256582586#0"/>
    <trip id="veh239" type="veh_passenger" depart="951.82" departLane="best" from="-121370013#3" to="-244029327#0"/>
    <trip id="veh240" type="veh_passenger" depart="955.80" departLane="best" from="244029327#0" to="-467169131#1"/>
    <trip id="veh241" type="veh_passenger" depart="959.78" departLane="best" from="121370991#2" to="121366758"/>
    <trip id="veh242" type="veh_passenger" depart="963.76" departLane="best" from="245427617#0" to="-467169136"/>
    <trip id="veh243" type="veh_passenger" depart="967.75" departLane="best" departSpeed="max" from="244029331#0" to="-256582598"/>
    <trip id="veh244" type="veh_passenger" depart="971.73" departLane="best" from="-121373339#2" to="-121370991#7"/>
    <trip id="veh246" type="veh_passenger" depart="979.69" departLane="best" departSpeed="max" from="121366894" to="244029327#0"/>
    <trip id="veh247" type="veh_passenger" depart="983.68" departLane="best" from="-351588704#7" to="-121370084#2"/>
    <trip id="veh248" type="veh_passenger" depart="987.66" departLane="best" from="-121373339#3" to="-244029327#4"/>
    <trip id="veh249" type="veh_passenger" depart="991.64" departLane="best" from="121367881" to="-351588704#1"/>
    <trip id="veh250" type="veh_passenger" depart="995.62" departLane="best" departSpeed="max" from="572695748#0" to="121367634#2"/>
    <trip id="veh251" type="veh_passenger" depart="999.61" departLane="best" from="244029327#4" to="-121371123"/>
    <trip id="veh252" type="veh_passenger" depart="1003.59" departLane="best" departSpeed="max" from="473245542" to="121368796"/>
    <trip id="veh253" type="veh_passenger" depart="1007.57" departLane="best" from="121366882#1" to="121218332#6"/>
    <trip id="veh255" type="veh_passenger" depart="1015.54" departLane="best" from="546251307#3" to="121366792#0"/>
    <trip id="veh256" type="veh_passenger" depart="1019.52" departLane="best" from="467169125" to="-548513669"/>
    <trip id="veh257" type="veh_passenger" depart="1023.50" departLane="best" from="-121369732" to="121371163"/>
    <trip id="veh258" type="veh_passenger" depart="1027.48" departLane="best" from="-121367634#4" to="-121372273"/>
    <trip id="veh259" type="veh_passenger" depart="1031.47" departLane="best" from="121370013#3" to="-467169131#0"/>
    <trip id="veh260" type="veh_passenger" depart="1035.45" departLane="best" from="572695748#2" to="-121370991#6"/>
    <trip id="veh261" type="veh_passenger" depart="1039.43" departLane="best" from="245427638#2" to="121370659"/>
    <trip id="veh262" type="veh_passenger" depart="1043.41" departLane="best" from="320515206" to="-244029327#3"/>
    <trip id="veh263" type="veh_passenger" depart="1047.40" departLane="best" from="121367634#4" to="121366620#3"/>
    <trip id="veh264" type="veh_passenger" depart="1051.38" departLane="best" from="121218332#8" to="467169134#2"/>
    <trip id="veh265" type="veh_passenger" depart="1055.36" departLane="best" from="572695748#1-AddedOnRampEdge" to="-467169131#1"/>
    <trip id="veh266" type="veh_passenger" depart="1059.34" departLane="best" from="121372535#1" to="121370890"/>
    <trip id="veh267" type="veh_passenger" depart="1063.33" departLane="best" from="244029331#9" to="546251307#5"/>
    <trip id="veh268" type="veh_passenger" depart="1067.31" departLane="best" from="-121218332#1" to="121366620#3"/>
    <trip id="veh269" type="veh_passenger" depart="1071.29" departLane="best" from="121371105#0" to="-407183054#2"/>
    <trip id="veh270" type="veh_passenger" depart="1075.27" departLane="best" from="-245427617#0" to="121373376#3"/>
    <trip id="veh271" type="veh_passenger" depart="1079.26" departLane="best" departSpeed="max" from="244029331#0" to="121366650"/>
    <trip id="veh272" type="veh_passenger" depart="1083.24" departLane="best" from="191377126#2" to="546249427"/>