<?xml version="1.0" encoding="UTF-8"?>

<!-- generated on Thu Nov 14 14:01:53 2019 by Eclipse SUMO netconvert Version 1.3.1
<configuration xmlns:xsi="http://www.w3.org/2001/XMLSchema-instance" xsi:noNamespaceSchemaLocation="http://sumo.dlr.de/xsd/netconvertConfiguration.xsd">

    <input>
        <type-files value="/usr/share/sumo/data/typemap/osmNetconvert.typ.xml"/>
        <osm-files value="osm_bbox.osm.xml"/>
    </input>

    <output>
        <output-file value="osm.net.xml"/>
        <output.street-names value="true"/>
        <output.original-names value="true"/>
    </output>

    <projection>
        <proj.utm value="true"/>
    </projection>

    <processing>
        <geometry.remove value="true"/>
        <roundabouts.guess value="true"/>
        <lefthand value="true"/>
    </processing>

    <tls_building>
        <tls.discard-simple value="true"/>
        <tls.join value="true"/>
        <tls.guess-signals value="true"/>
        <tls.default-type value="actuated"/>
    </tls_building>

    <ramp_guessing>
        <ramps.guess value="true"/>
    </ramp_guessing>

    <junctions>
        <junctions.join value="true"/>
        <junctions.corner-detail value="5"/>
    </junctions>

    <report>
        <verbose value="true"/>
    </report>

</configuration>
-->

<net version="1.3" junctionCornerDetail="5" lefthand="true" limitTurnSpeed="5.50" xmlns:xsi="http://www.w3.org/2001/XMLSchema-instance" xsi:noNamespaceSchemaLocation="http://sumo.dlr.de/xsd/net_file.xsd">

    <location netOffset="-586796.14,-3872481.00" convBoundary="0.00,-0.00,1112.08,2173.20" origBoundary="135.951260,34.991189,135.963371,35.010756" projParameter="+proj=utm +zone=53 +ellps=WGS84 +datum=WGS84 +units=m +no_defs"/>

    <type id="highway.bridleway" priority="1" numLanes="1" speed="2.78" allow="pedestrian" oneway="1" width="2.00"/>
    <type id="highway.bus_guideway" priority="1" numLanes="1" speed="27.78" allow="bus" oneway="1"/>
    <type id="highway.cycleway" priority="1" numLanes="1" speed="8.33" allow="bicycle" oneway="0" width="1.00"/>
    <type id="highway.footway" priority="1" numLanes="1" speed="2.78" allow="pedestrian" oneway="1" width="2.00"/>
    <type id="highway.ford" priority="1" numLanes="1" speed="2.78" allow="army" oneway="0"/>
    <type id="highway.living_street" priority="2" numLanes="1" speed="2.78" disallow="tram rail_urban rail rail_electric rail_fast ship" oneway="0"/>
    <type id="highway.motorway" priority="14" numLanes="2" speed="39.44" allow="private emergency authority army vip passenger hov taxi bus coach delivery truck trailer motorcycle evehicle custom1 custom2" oneway="1"/>
    <type id="highway.motorway_link" priority="9" numLanes="1" speed="22.22" allow="private emergency authority army vip passenger hov taxi bus coach delivery truck trailer motorcycle evehicle custom1 custom2" oneway="1"/>
    <type id="highway.path" priority="1" numLanes="1" speed="2.78" allow="pedestrian bicycle" oneway="1" width="2.00"/>
    <type id="highway.pedestrian" priority="1" numLanes="1" speed="2.78" allow="pedestrian" oneway="1" width="2.00"/>
    <type id="highway.primary" priority="12" numLanes="2" speed="27.78" disallow="tram rail_urban rail rail_electric rail_fast ship" oneway="0"/>
    <type id="highway.primary_link" priority="7" numLanes="1" speed="22.22" disallow="tram rail_urban rail rail_electric rail_fast ship" oneway="0"/>
    <type id="highway.raceway" priority="15" numLanes="2" speed="83.33" allow="vip" oneway="0"/>
    <type id="highway.residential" priority="3" numLanes="1" speed="13.89" disallow="tram rail_urban rail rail_electric rail_fast ship" oneway="0"/>
    <type id="highway.secondary" priority="11" numLanes="2" speed="27.78" disallow="tram rail_urban rail rail_electric rail_fast ship" oneway="0"/>
    <type id="highway.secondary_link" priority="6" numLanes="1" speed="22.22" disallow="tram rail_urban rail rail_electric rail_fast ship" oneway="0"/>
    <type id="highway.service" priority="1" numLanes="1" speed="5.56" allow="pedestrian delivery bicycle" oneway="0"/>
    <type id="highway.stairs" priority="1" numLanes="1" speed="1.39" allow="pedestrian" oneway="1" width="2.00"/>
    <type id="highway.step" priority="1" numLanes="1" speed="1.39" allow="pedestrian" oneway="1" width="2.00"/>
    <type id="highway.steps" priority="1" numLanes="1" speed="1.39" allow="pedestrian" oneway="1" width="2.00"/>
    <type id="highway.tertiary" priority="10" numLanes="1" speed="22.22" disallow="tram rail_urban rail rail_electric rail_fast ship" oneway="0"/>
    <type id="highway.tertiary_link" priority="5" numLanes="1" speed="22.22" disallow="tram rail_urban rail rail_electric rail_fast ship" oneway="0"/>
    <type id="highway.track" priority="1" numLanes="1" speed="5.56" disallow="tram rail_urban rail rail_electric rail_fast ship" oneway="0"/>
    <type id="highway.trunk" priority="13" numLanes="2" speed="27.78" disallow="pedestrian bicycle tram rail_urban rail rail_electric rail_fast ship" oneway="0"/>
    <type id="highway.trunk_link" priority="8" numLanes="1" speed="22.22" disallow="pedestrian bicycle tram rail_urban rail rail_electric rail_fast ship" oneway="0"/>
    <type id="highway.unclassified" priority="4" numLanes="1" speed="13.89" disallow="tram rail_urban rail rail_electric rail_fast ship" oneway="0"/>
    <type id="highway.unsurfaced" priority="1" numLanes="1" speed="8.33" disallow="tram rail_urban rail rail_electric rail_fast ship" oneway="0"/>
    <type id="railway.highspeed" priority="21" numLanes="1" speed="69.44" allow="rail_fast" oneway="1"/>
    <type id="railway.light_rail" priority="19" numLanes="1" speed="27.78" allow="rail_urban" oneway="1"/>
    <type id="railway.preserved" priority="16" numLanes="1" speed="27.78" allow="rail" oneway="1"/>
    <type id="railway.rail" priority="20" numLanes="1" speed="44.44" allow="rail" oneway="1"/>
    <type id="railway.subway" priority="18" numLanes="1" speed="27.78" allow="rail_urban" oneway="1"/>
    <type id="railway.tram" priority="17" numLanes="1" speed="13.89" allow="tram" oneway="1"/>

    <edge id=":1359094847_0" function="internal">
        <lane id=":1359094847_0_0" index="0" disallow="tram rail_urban rail rail_electric rail_fast ship" speed="3.65" length="4.67" shape="201.76,0.35 201.24,-0.99 200.55,-1.56 199.68,-1.35 198.64,-0.35"/>
    </edge>
    <edge id=":1359095306_0" function="internal">
        <lane id=":1359095306_0_0" index="0" disallow="tram rail_urban rail rail_electric rail_fast ship" speed="3.65" length="4.67" shape="329.02,350.53 329.07,349.08 328.66,348.29 327.78,348.15 326.43,348.66"/>
    </edge>
    <edge id=":1359095444_0" function="internal">
        <lane id=":1359095444_0_0" index="0" disallow="tram rail_urban rail rail_electric rail_fast ship" speed="5.76" length="9.17" shape="256.53,424.09 253.96,424.96 252.12,424.64 250.99,423.14 250.59,420.46"/>
    </edge>
    <edge id=":1359095444_1" function="internal">
        <lane id=":1359095444_1_0" index="0" disallow="tram rail_urban rail rail_electric rail_fast ship" speed="10.06" length="15.40" shape="256.53,424.09 252.58,426.50 249.79,429.23 248.15,432.27 247.67,435.65"/>
    </edge>
    <edge id=":1359095444_2" function="internal">
        <lane id=":1359095444_2_0" index="0" disallow="tram rail_urban rail rail_electric rail_fast ship" speed="3.65" length="4.67" shape="256.53,424.09 255.81,425.34 255.81,426.24 256.52,426.78 257.96,426.96"/>
    </edge>
    <edge id=":1359095444_3" function="internal">
        <lane id=":1359095444_3_0" index="0" disallow="tram rail_urban rail rail_electric rail_fast ship" speed="8.85" length="11.76" shape="250.87,435.56 251.26,433.14 252.57,430.90 254.80,428.84 257.96,426.96"/>
    </edge>
    <edge id=":1359095444_4" function="internal">
        <lane id=":1359095444_4_0" index="0" disallow="tram rail_urban rail rail_electric rail_fast ship" speed="13.89" length="15.11" shape="250.87,435.56 250.59,420.46"/>
    </edge>
    <edge id=":1359095444_5" function="internal">
        <lane id=":1359095444_5_0" index="0" disallow="tram rail_urban rail rail_electric rail_fast ship" speed="3.65" length="2.34" shape="250.87,435.56 250.03,434.38 249.22,434.00"/>
    </edge>
    <edge id=":1359095444_9" function="internal">
        <lane id=":1359095444_9_0" index="0" disallow="tram rail_urban rail rail_electric rail_fast ship" speed="3.65" length="2.34" shape="249.22,434.00 248.44,434.42 247.67,435.65"/>
    </edge>
    <edge id=":1359095444_6" function="internal">
        <lane id=":1359095444_6_0" index="0" disallow="tram rail_urban rail rail_electric rail_fast ship" speed="13.89" length="15.15" shape="247.39,420.50 247.67,435.65"/>
    </edge>
    <edge id=":1359095444_7" function="internal">
        <lane id=":1359095444_7_0" index="0" disallow="tram rail_urban rail rail_electric rail_fast ship" speed="7.45" length="6.47" shape="247.39,420.50 248.11,425.26 249.10,426.59"/>
    </edge>
    <edge id=":1359095444_8" function="internal">
        <lane id=":1359095444_8_0" index="0" disallow="tram rail_urban rail rail_electric rail_fast ship" speed="3.65" length="2.34" shape="247.39,420.50 248.20,421.69 249.01,422.08"/>
    </edge>
    <edge id=":1359095444_10" function="internal">
        <lane id=":1359095444_10_0" index="0" disallow="tram rail_urban rail rail_electric rail_fast ship" speed="7.45" length="9.82" shape="249.10,426.59 250.11,427.93 253.39,428.49 257.96,426.96"/>
    </edge>
    <edge id=":1359095444_11" function="internal">
        <lane id=":1359095444_11_0" index="0" disallow="tram rail_urban rail rail_electric rail_fast ship" speed="3.65" length="2.34" shape="249.01,422.08 249.80,421.67 250.59,420.46"/>
    </edge>
    <edge id=":1359095541_0" function="internal">
        <lane id=":1359095541_0_0" index="0" disallow="tram rail_urban rail rail_electric rail_fast ship" speed="13.89" length="16.37" shape="245.64,495.92 244.95,499.87 244.04,504.05 242.69,508.02 240.68,511.36"/>
    </edge>
    <edge id=":1359095541_1" function="internal">
        <lane id=":1359095541_1_0" index="0" disallow="tram rail_urban rail rail_electric rail_fast ship" speed="7.49" length="20.42" shape="245.64,495.92 245.17,502.56 246.71,505.77 250.26,505.53 255.81,501.86"/>
    </edge>
    <edge id=":1359095541_2" function="internal">
        <lane id=":1359095541_2_0" index="0" disallow="tram rail_urban rail rail_electric rail_fast ship" speed="3.65" length="4.67" shape="245.64,495.92 246.22,497.24 246.93,497.77 247.79,497.52 248.79,496.48"/>
    </edge>
    <edge id=":1359095541_3" function="internal">
        <lane id=":1359095541_3_0" index="0" disallow="tram rail_urban rail rail_electric rail_fast ship" speed="5.46" length="10.02" shape="253.78,499.39 251.05,501.19 249.31,501.30 248.56,499.73 248.79,496.48"/>
    </edge>
    <edge id=":1359095541_4" function="internal">
        <lane id=":1359095541_4_0" index="0" disallow="tram rail_urban rail rail_electric rail_fast ship" speed="13.89" length="17.76" shape="253.78,499.39 250.55,502.06 246.98,505.12 243.54,508.31 240.68,511.36"/>
    </edge>
    <edge id=":1359095541_5" function="internal">
        <lane id=":1359095541_5_0" index="0" disallow="tram rail_urban rail rail_electric rail_fast ship" speed="3.65" length="2.34" shape="253.78,499.39 253.36,500.77 253.56,501.64"/>
    </edge>
    <edge id=":1359095541_9" function="internal">
        <lane id=":1359095541_9_0" index="0" disallow="tram rail_urban rail rail_electric rail_fast ship" speed="3.65" length="2.34" shape="253.56,501.64 254.37,502.00 255.81,501.86"/>
    </edge>
    <edge id=":1359095541_6" function="internal">
        <lane id=":1359095541_6_0" index="0" disallow="tram rail_urban rail rail_electric rail_fast ship" speed="13.89" length="17.17" shape="243.14,513.41 245.93,510.43 249.23,507.39 252.65,504.47 255.81,501.86"/>
    </edge>
    <edge id=":1359095541_7" function="internal">
        <lane id=":1359095541_7_0" index="0" disallow="tram rail_urban rail rail_electric rail_fast ship" speed="13.89" length="5.62" shape="243.14,513.41 245.25,509.84 245.74,508.46"/>
    </edge>
    <edge id=":1359095541_8" function="internal">
        <lane id=":1359095541_8_0" index="0" disallow="tram rail_urban rail rail_electric rail_fast ship" speed="3.65" length="2.23" shape="243.14,513.41 243.29,511.97 242.98,511.25"/>
    </edge>
    <edge id=":1359095541_10" function="internal">
        <lane id=":1359095541_10_0" index="0" disallow="tram rail_urban rail rail_electric rail_fast ship" speed="13.89" length="12.38" shape="245.74,508.46 246.84,505.35 247.99,500.66 248.79,496.48"/>
    </edge>
    <edge id=":1359095541_11" function="internal">
        <lane id=":1359095541_11_0" index="0" disallow="tram rail_urban rail rail_electric rail_fast ship" speed="3.65" length="2.44" shape="242.98,511.25 242.93,511.16 242.06,510.95 240.68,511.36"/>
    </edge>
    <edge id=":1359095598_0" function="internal">
        <lane id=":1359095598_0_0" index="0" disallow="pedestrian bicycle tram rail_urban rail rail_electric rail_fast ship" speed="7.16" length="9.92" shape="198.12,543.08 195.51,544.30 193.14,544.57 191.04,543.91 189.19,542.31"/>
    </edge>
    <edge id=":1359095598_1" function="internal">
        <lane id=":1359095598_1_0" index="0" disallow="tram rail_urban rail rail_electric rail_fast ship" speed="3.65" length="2.56" shape="198.12,543.08 197.52,544.39 197.60,545.28 197.78,545.40"/>
    </edge>
    <edge id=":1359095598_5" function="internal">
        <lane id=":1359095598_5_0" index="0" disallow="tram rail_urban rail rail_electric rail_fast ship" speed="3.65" length="2.11" shape="197.78,545.40 198.35,545.76 199.80,545.81"/>
    </edge>
    <edge id=":1359095598_2" function="internal">
        <lane id=":1359095598_2_0" index="0" disallow="tram rail_urban rail rail_electric rail_fast ship" speed="6.16" length="9.05" shape="198.68,553.32 197.28,551.19 197.00,549.23 197.84,547.44 199.80,545.81"/>
    </edge>
    <edge id=":1359095598_3" function="internal">
        <lane id=":1359095598_3_0" index="0" disallow="pedestrian bicycle tram rail_urban rail rail_electric rail_fast ship" speed="27.78" length="14.59" shape="198.68,553.32 189.19,542.31"/>
        <lane id=":1359095598_3_1" index="1" disallow="pedestrian bicycle tram rail_urban rail rail_electric rail_fast ship" speed="27.78" length="14.59" shape="196.29,555.45 186.73,544.36"/>
    </edge>
    <edge id=":1359095873_0" function="internal">
        <lane id=":1359095873_0_0" index="0" disallow="pedestrian bicycle tram rail_urban rail rail_electric rail_fast ship" speed="6.34" length="9.04" shape="287.24,662.15 285.03,663.34 283.03,663.50 281.21,662.62 279.60,660.71"/>
    </edge>
    <edge id=":1359095873_1" function="internal">
        <lane id=":1359095873_1_0" index="0" disallow="tram rail_urban rail rail_electric rail_fast ship" speed="3.65" length="4.67" shape="287.24,662.15 286.75,663.50 286.91,664.39 287.71,664.79 289.15,664.71"/>
    </edge>
    <edge id=":1359095873_2" function="internal">
        <lane id=":1359095873_2_0" index="0" disallow="tram rail_urban rail rail_electric rail_fast ship" speed="6.89" length="9.50" shape="287.13,672.98 286.20,670.71 286.23,668.58 287.21,666.58 289.15,664.71"/>
    </edge>
    <edge id=":1359095873_3" function="internal">
        <lane id=":1359095873_3_0" index="0" disallow="pedestrian bicycle tram rail_urban rail rail_electric rail_fast ship" speed="27.78" length="14.38" shape="287.13,672.98 279.60,660.71"/>
        <lane id=":1359095873_3_1" index="1" disallow="pedestrian bicycle tram rail_urban rail rail_electric rail_fast ship" speed="27.78" length="14.38" shape="284.39,674.63 276.88,662.40"/>
    </edge>
    <edge id=":1359096153_0" function="internal">
        <lane id=":1359096153_0_0" index="0" disallow="tram rail_urban rail rail_electric rail_fast ship" speed="13.89" length="7.51" shape="297.71,749.64 292.29,754.85"/>
    </edge>
    <edge id=":1359096153_1" function="internal">
        <lane id=":1359096153_1_0" index="0" disallow="tram rail_urban rail rail_electric rail_fast ship" speed="13.89" length="7.51" shape="297.71,749.64 292.32,754.88"/>
    </edge>
    <edge id=":1359096153_2" function="internal">
        <lane id=":1359096153_2_0" index="0" disallow="tram rail_urban rail rail_electric rail_fast ship" speed="3.24" length="3.20" shape="297.71,749.64 299.84,752.02"/>
    </edge>
    <edge id=":1359096153_3" function="internal">
        <lane id=":1359096153_3_0" index="0" disallow="tram rail_urban rail rail_electric rail_fast ship" speed="3.65" length="2.34" shape="297.71,749.64 297.35,751.04 297.59,751.90"/>
    </edge>
    <edge id=":1359096153_16" function="internal">
        <lane id=":1359096153_16_0" index="0" disallow="tram rail_urban rail rail_electric rail_fast ship" speed="3.65" length="2.34" shape="297.59,751.90 298.42,752.23 299.84,752.02"/>
    </edge>
    <edge id=":1359096153_4" function="internal">
        <lane id=":1359096153_4_0" index="0" disallow="tram rail_urban rail rail_electric rail_fast ship" speed="13.89" length="7.27" shape="294.64,757.09 299.84,752.02"/>
    </edge>
    <edge id=":1359096153_5" function="internal">
        <lane id=":1359096153_5_0" index="0" disallow="tram rail_urban rail rail_electric rail_fast ship" speed="13.89" length="7.27" shape="294.64,757.09 299.84,752.02"/>
    </edge>
    <edge id=":1359096153_6" function="internal">
        <lane id=":1359096153_6_0" index="0" disallow="tram rail_urban rail rail_electric rail_fast ship" speed="3.26" length="3.24" shape="294.64,757.09 292.29,754.85"/>
    </edge>
    <edge id=":1359096153_7" function="internal">
        <lane id=":1359096153_7_0" index="0" disallow="tram rail_urban rail rail_electric rail_fast ship" speed="3.65" length="4.67" shape="294.64,757.09 294.89,755.67 294.58,754.82 293.73,754.56 292.32,754.88"/>
    </edge>
    <edge id=":1359096153_8" function="internal">
        <lane id=":1359096153_8_0" index="0" disallow="tram rail_urban rail rail_electric rail_fast ship" speed="13.89" length="7.27" shape="294.61,757.06 299.84,752.02"/>
    </edge>
    <edge id=":1359096153_9" function="internal">
        <lane id=":1359096153_9_0" index="0" disallow="tram rail_urban rail rail_electric rail_fast ship" speed="13.89" length="7.27" shape="294.61,757.06 299.84,752.02"/>
    </edge>
    <edge id=":1359096153_10" function="internal">
        <lane id=":1359096153_10_0" index="0" disallow="tram rail_urban rail rail_electric rail_fast ship" speed="3.23" length="3.16" shape="294.61,757.06 292.32,754.88"/>
    </edge>
    <edge id=":1359096153_11" function="internal">
        <lane id=":1359096153_11_0" index="0" disallow="tram rail_urban rail rail_electric rail_fast ship" speed="3.65" length="2.34" shape="294.61,757.06 294.86,755.64 294.55,754.80"/>
    </edge>
    <edge id=":1359096153_17" function="internal">
        <lane id=":1359096153_17_0" index="0" disallow="tram rail_urban rail rail_electric rail_fast ship" speed="3.65" length="2.34" shape="294.55,754.80 293.70,754.53 292.29,754.85"/>
    </edge>
    <edge id=":1359096153_12" function="internal">
        <lane id=":1359096153_12_0" index="0" disallow="tram rail_urban rail rail_electric rail_fast ship" speed="13.89" length="7.51" shape="297.71,749.64 292.29,754.85"/>
    </edge>
    <edge id=":1359096153_13" function="internal">
        <lane id=":1359096153_13_0" index="0" disallow="tram rail_urban rail rail_electric rail_fast ship" speed="13.89" length="7.51" shape="297.71,749.64 292.32,754.88"/>
    </edge>
    <edge id=":1359096153_14" function="internal">
        <lane id=":1359096153_14_0" index="0" disallow="tram rail_urban rail rail_electric rail_fast ship" speed="3.24" length="3.20" shape="297.71,749.64 299.84,752.02"/>
    </edge>
    <edge id=":1359096153_15" function="internal">
        <lane id=":1359096153_15_0" index="0" disallow="tram rail_urban rail rail_electric rail_fast ship" speed="3.65" length="4.67" shape="297.71,749.64 297.35,751.04 297.59,751.90 298.42,752.23 299.84,752.02"/>
    </edge>
    <edge id=":1359096269_0" function="internal">
        <lane id=":1359096269_0_0" index="0" disallow="tram rail_urban rail rail_electric rail_fast ship" speed="13.89" length="7.85" shape="260.66,787.24 255.37,793.05"/>
    </edge>
    <edge id=":1359096269_1" function="internal">
        <lane id=":1359096269_1_0" index="0" disallow="tram rail_urban rail rail_electric rail_fast ship" speed="13.89" length="7.85" shape="260.66,787.24 255.38,793.05"/>
    </edge>
    <edge id=":1359096269_2" function="internal">
        <lane id=":1359096269_2_0" index="0" disallow="tram rail_urban rail rail_electric rail_fast ship" speed="3.27" length="1.67" shape="260.66,787.24 261.86,788.41"/>
    </edge>
    <edge id=":1359096269_3" function="internal">
        <lane id=":1359096269_3_0" index="0" disallow="tram rail_urban rail rail_electric rail_fast ship" speed="3.65" length="2.34" shape="260.66,787.24 260.39,788.66 260.68,789.50"/>
    </edge>
    <edge id=":1359096269_16" function="internal">
        <lane id=":1359096269_16_0" index="0" disallow="tram rail_urban rail rail_electric rail_fast ship" speed="3.27" length="1.60" shape="261.86,788.41 263.00,789.53"/>
    </edge>
    <edge id=":1359096269_17" function="internal">
        <lane id=":1359096269_17_0" index="0" disallow="tram rail_urban rail rail_electric rail_fast ship" speed="3.65" length="2.34" shape="260.68,789.50 261.54,789.78 262.95,789.48"/>
    </edge>
    <edge id=":1359096269_4" function="internal">
        <lane id=":1359096269_4_0" index="0" disallow="tram rail_urban rail rail_electric rail_fast ship" speed="13.89" length="7.85" shape="260.71,787.29 259.05,788.93 257.95,790.08 256.89,791.27 255.37,793.05"/>
    </edge>
    <edge id=":1359096269_5" function="internal">
        <lane id=":1359096269_5_0" index="0" disallow="tram rail_urban rail rail_electric rail_fast ship" speed="13.89" length="7.85" shape="260.71,787.29 259.06,788.93 257.95,790.08 256.89,791.28 255.38,793.05"/>
    </edge>
    <edge id=":1359096269_6" function="internal">
        <lane id=":1359096269_6_0" index="0" disallow="tram rail_urban rail rail_electric rail_fast ship" speed="3.23" length="3.13" shape="260.71,787.29 262.95,789.48"/>
    </edge>
    <edge id=":1359096269_7" function="internal">
        <lane id=":1359096269_7_0" index="0" disallow="tram rail_urban rail rail_electric rail_fast ship" speed="3.65" length="4.67" shape="260.71,787.29 260.44,788.71 260.74,789.56 261.59,789.83 263.00,789.53"/>
    </edge>
    <edge id=":1359096269_8" function="internal">
        <lane id=":1359096269_8_0" index="0" disallow="tram rail_urban rail rail_electric rail_fast ship" speed="13.89" length="7.62" shape="257.82,795.12 262.95,789.48"/>
    </edge>
    <edge id=":1359096269_9" function="internal">
        <lane id=":1359096269_9_0" index="0" disallow="tram rail_urban rail rail_electric rail_fast ship" speed="13.89" length="7.62" shape="257.82,795.12 259.29,793.39 260.32,792.24 261.39,791.12 263.00,789.53"/>
    </edge>
    <edge id=":1359096269_10" function="internal">
        <lane id=":1359096269_10_0" index="0" disallow="tram rail_urban rail rail_electric rail_fast ship" speed="3.24" length="3.20" shape="257.82,795.12 255.37,793.05"/>
    </edge>
    <edge id=":1359096269_11" function="internal">
        <lane id=":1359096269_11_0" index="0" disallow="tram rail_urban rail rail_electric rail_fast ship" speed="3.65" length="4.67" shape="257.82,795.12 257.99,793.68 257.63,792.86 256.76,792.65 255.38,793.05"/>
    </edge>
    <edge id=":1359096269_12" function="internal">
        <lane id=":1359096269_12_0" index="0" disallow="tram rail_urban rail rail_electric rail_fast ship" speed="13.89" length="7.62" shape="257.82,795.11 262.95,789.48"/>
    </edge>
    <edge id=":1359096269_13" function="internal">
        <lane id=":1359096269_13_0" index="0" disallow="tram rail_urban rail rail_electric rail_fast ship" speed="13.89" length="7.62" shape="257.82,795.11 259.29,793.39 260.32,792.23 261.39,791.12 263.00,789.53"/>
    </edge>
    <edge id=":1359096269_14" function="internal">
        <lane id=":1359096269_14_0" index="0" disallow="tram rail_urban rail rail_electric rail_fast ship" speed="3.24" length="3.20" shape="257.82,795.11 255.38,793.05"/>
    </edge>
    <edge id=":1359096269_15" function="internal">
        <lane id=":1359096269_15_0" index="0" disallow="tram rail_urban rail rail_electric rail_fast ship" speed="3.65" length="2.34" shape="257.82,795.11 257.98,793.68 257.63,792.86"/>
    </edge>
    <edge id=":1359096269_18" function="internal">
        <lane id=":1359096269_18_0" index="0" disallow="tram rail_urban rail rail_electric rail_fast ship" speed="3.65" length="2.34" shape="257.63,792.86 256.76,792.65 255.37,793.05"/>
    </edge>
    <edge id=":1359096292_0" function="internal">
        <lane id=":1359096292_0_0" index="0" disallow="tram rail_urban rail rail_electric rail_fast ship" speed="13.89" length="9.42" shape="251.27,797.89 249.49,800.04 248.37,801.60 247.48,803.30 246.37,805.86"/>
    </edge>
    <edge id=":1359096292_1" function="internal">
        <lane id=":1359096292_1_0" index="0" disallow="tram rail_urban rail rail_electric rail_fast ship" speed="13.89" length="9.42" shape="251.27,797.89 249.49,800.04 248.37,801.60 247.48,803.30 246.37,805.86"/>
    </edge>
    <edge id=":1359096292_2" function="internal">
        <lane id=":1359096292_2_0" index="0" disallow="tram rail_urban rail rail_electric rail_fast ship" speed="3.24" length="3.20" shape="251.27,797.89 253.71,799.96"/>
    </edge>
    <edge id=":1359096292_3" function="internal">
        <lane id=":1359096292_3_0" index="0" disallow="tram rail_urban rail rail_electric rail_fast ship" speed="3.65" length="2.34" shape="251.27,797.89 251.10,799.33 251.46,800.15"/>
    </edge>
    <edge id=":1359096292_16" function="internal">
        <lane id=":1359096292_16_0" index="0" disallow="tram rail_urban rail rail_electric rail_fast ship" speed="3.65" length="2.34" shape="251.46,800.15 252.33,800.36 253.71,799.96"/>
    </edge>
    <edge id=":1359096292_4" function="internal">
        <lane id=":1359096292_4_0" index="0" disallow="tram rail_urban rail rail_electric rail_fast ship" speed="13.89" length="9.42" shape="251.27,797.89 249.49,800.04 248.37,801.60 247.48,803.30 246.37,805.86"/>
    </edge>
    <edge id=":1359096292_5" function="internal">
        <lane id=":1359096292_5_0" index="0" disallow="tram rail_urban rail rail_electric rail_fast ship" speed="13.89" length="9.42" shape="251.27,797.89 249.49,800.04 248.37,801.60 247.48,803.30 246.37,805.86"/>
    </edge>
    <edge id=":1359096292_6" function="internal">
        <lane id=":1359096292_6_0" index="0" disallow="tram rail_urban rail rail_electric rail_fast ship" speed="3.24" length="3.20" shape="251.27,797.89 253.71,799.96"/>
    </edge>
    <edge id=":1359096292_7" function="internal">
        <lane id=":1359096292_7_0" index="0" disallow="tram rail_urban rail rail_electric rail_fast ship" speed="3.65" length="4.67" shape="251.27,797.89 251.11,799.33 251.46,800.15 252.33,800.36 253.71,799.96"/>
    </edge>
    <edge id=":1359096292_8" function="internal">
        <lane id=":1359096292_8_0" index="0" disallow="tram rail_urban rail rail_electric rail_fast ship" speed="13.89" length="8.45" shape="249.31,807.11 250.31,804.81 251.11,803.29 252.11,801.89 253.71,799.96"/>
    </edge>
    <edge id=":1359096292_9" function="internal">
        <lane id=":1359096292_9_0" index="0" disallow="tram rail_urban rail rail_electric rail_fast ship" speed="13.89" length="8.45" shape="249.31,807.11 250.31,804.81 251.11,803.29 252.11,801.89 253.71,799.96"/>
    </edge>
    <edge id=":1359096292_10" function="internal">
        <lane id=":1359096292_10_0" index="0" disallow="tram rail_urban rail rail_electric rail_fast ship" speed="3.24" length="1.60" shape="249.31,807.11 247.84,806.48"/>
    </edge>
    <edge id=":1359096292_11" function="internal">
        <lane id=":1359096292_11_0" index="0" disallow="tram rail_urban rail rail_electric rail_fast ship" speed="3.65" length="2.34" shape="249.31,807.11 249.04,805.69 248.46,805.01"/>
    </edge>
    <edge id=":1359096292_17" function="internal">
        <lane id=":1359096292_17_0" index="0" disallow="tram rail_urban rail rail_electric rail_fast ship" speed="3.24" length="1.60" shape="247.84,806.48 246.37,805.86"/>
    </edge>
    <edge id=":1359096292_18" function="internal">
        <lane id=":1359096292_18_0" index="0" disallow="tram rail_urban rail rail_electric rail_fast ship" speed="3.65" length="2.34" shape="248.46,805.01 247.57,805.06 246.37,805.86"/>
    </edge>
    <edge id=":1359096292_12" function="internal">
        <lane id=":1359096292_12_0" index="0" disallow="tram rail_urban rail rail_electric rail_fast ship" speed="13.89" length="8.45" shape="249.31,807.11 250.31,804.81 251.11,803.29 252.11,801.89 253.71,799.96"/>
    </edge>
    <edge id=":1359096292_13" function="internal">
        <lane id=":1359096292_13_0" index="0" disallow="tram rail_urban rail rail_electric rail_fast ship" speed="13.89" length="8.45" shape="249.31,807.11 250.31,804.81 251.11,803.29 252.11,801.89 253.71,799.96"/>
    </edge>
    <edge id=":1359096292_14" function="internal">
        <lane id=":1359096292_14_0" index="0" disallow="tram rail_urban rail rail_electric rail_fast ship" speed="3.24" length="3.20" shape="249.31,807.11 246.37,805.86"/>
    </edge>
    <edge id=":1359096292_15" function="internal">
        <lane id=":1359096292_15_0" index="0" disallow="tram rail_urban rail rail_electric rail_fast ship" speed="3.65" length="4.67" shape="249.31,807.11 249.04,805.69 248.46,805.01 247.57,805.06 246.37,805.86"/>
    </edge>
    <edge id=":1359096303_0" function="internal">
        <lane id=":1359096303_0_0" index="0" disallow="tram rail_urban rail rail_electric rail_fast ship" speed="3.65" length="4.67" shape="126.24,805.85 126.78,807.19 127.48,807.75 128.34,807.52 129.37,806.51"/>
    </edge>