<?xml version="1.0" encoding="UTF-8"?>

<!-- generated on Thu Nov 14 18:21:33 2019 by Eclipse SUMO polyconvert Version 1.3.1
<configuration xmlns:xsi="http://www.w3.org/2001/XMLSchema-instance" xsi:noNamespaceSchemaLocation="http://sumo.dlr.de/xsd/polyconvertConfiguration.xsd">

    <input>
        <net-file value="osm.net.xml"/>
        <osm-files value="osm_bbox.osm.xml"/>
        <osm.keep-full-type value="true"/>
        <type-file value="/usr/share/sumo/data/typemap/osmPolyconvert.typ.xml"/>
    </input>

    <output>
        <output-file value="osm.poly.xml"/>
    </output>

    <processing>
        <poi-layer-offset value="5"/>
    </processing>

    <report>
        <verbose value="true"/>
    </report>

</configuration>
-->

<additional xmlns:xsi="http://www.w3.org/2001/XMLSchema-instance" xsi:noNamespaceSchemaLocation="http://sumo.dlr.de/xsd/additional_file.xsd">
    <location netOffset="-585520.36,-3871456.92" convBoundary="0.00,-0.00,2107.18,2842.45" origBoundary="135.936974,34.982082,135.960156,35.007552" projParameter="+proj=utm +zone=53 +ellps=WGS84 +datum=WGS84 +units=m +no_defs"/>

    <poly id="256582555" type="building.yes" color="255,230,230" fill="1" layer="-1.00" shape="1497.754483,1864.870410 1463.335176,1835.538511 1457.816271,1841.951991 1492.235571,1871.283870 1497.754483,1864.870410"/>
    <poly id="256582561" type="building.yes" color="255,230,230" fill="1" layer="-1.00" shape="1508.137912,1846.025844 1482.666798,1824.864766 1476.804716,1831.851700 1502.275717,1853.023852 1508.137912,1846.025844"/>
    <poly id="256582562" type="building.apartments" color="255,230,230" fill="1" layer="-1.00" shape="1523.553221,1840.239269 1522.908050,1851.412996 1540.403298,1852.411918 1541.048491,1841.238192 1523.553221,1840.239269"/>
    <poly id="256582565" type="building.apartments" color="255,230,230" fill="1" layer="-1.00" shape="1567.366757,1871.147368 1540.986082,1859.238548 1536.492991,1869.088948 1562.873643,1880.997756 1567.366757,1871.147368"/>
    <poly id="265601073" type="building.retail" color="255,230,230" fill="1" layer="-1.00" shape="1035.736124,1767.305805 1039.709120,1769.883403 1045.668767,1773.733169 1056.550976,1757.055624 1051.072148,1753.509879 1046.627342,1750.639426 1035.736124,1767.305805"/>
    <poly id="265601073#1" type="shop.convenience" color="237,199,255" fill="1" layer="-1.00" shape="1035.736124,1767.305805 1039.709120,1769.883403 1045.668767,1773.733169 1056.550976,1757.055624 1051.072148,1753.509879 1046.627342,1750.639426 1035.736124,1767.305805"/>
    <poly id="269762178" type="building.yes" color="255,230,230" fill="1" layer="-1.00" shape="941.510485,1188.219744 898.102887,1209.247338 903.125755,1219.532060 947.536121,1200.554768 941.510485,1188.219744"/>
    <poly id="269762193" type="building.yes" color="255,230,230" fill="1" layer="-1.00" shape="918.165795,1253.391670 899.597874,1212.333751 887.883593,1217.579733 892.736732,1239.031604 899.214010,1255.718600 901.725960,1255.509497 903.105829,1260.147578 918.165795,1253.391670"/>
    <poly id="269762195" type="building.yes" color="255,230,230" fill="1" layer="-1.00" shape="948.513170,1200.508579 903.819024,1220.536833 918.766451,1253.574823 902.496658,1260.862726 932.176547,1326.481963 976.393577,1306.671154 971.602051,1296.066939 988.339387,1288.561772 948.513170,1200.508579"/>
    <poly id="290091009" type="building.school" color="255,230,230" fill="1" layer="-1.00" shape="1016.832076,1440.714157 1029.311740,1473.074558 984.473908,1501.630110 1004.186043,1537.419727 1020.883482,1528.306036 1006.967377,1503.052516 1028.353061,1491.376921 1041.811384,1515.816475 1051.692303,1510.420192 1035.102477,1480.316593 1042.267777,1476.402911 1045.085679,1472.802867 1028.825519,1434.883165 1016.832076,1440.714157"/>
    <poly id="290091069" type="amenity.school" color="237,199,199" fill="1" layer="-1.00" shape="981.797978,1315.207146 927.877696,1338.031429 942.052335,1371.683246 908.628456,1390.043772 973.673569,1497.157723 935.932952,1522.264959 969.297151,1554.401908 1015.919895,1581.995471 1031.171236,1547.347367 1075.684745,1526.985316 1098.716812,1525.507189 1056.061117,1484.785701 1015.630016,1388.507871 1012.402084,1368.956837 1004.168062,1338.333706 981.797978,1315.207146"/>
    <poly id="305806368" type="leisure.park" color="207,245,201" fill="1" layer="-2.00" shape="1197.223668,1741.345716 1253.848866,1700.736428 1275.511869,1728.936730 1226.142754,1790.610475 1197.223668,1741.345716"/>
    <poly id="305806384" type="building.kindergarten" color="255,230,230" fill="1" layer="-1.00" shape="936.124261,1510.754177 947.460953,1502.942632 926.421785,1475.203816 916.564559,1482.918504 936.124261,1510.754177"/>
    <poly id="305806671" type="building.school" color="255,230,230" fill="1" layer="-1.00" shape="1238.713348,1795.066752 1246.990472,1782.679087 1257.603696,1789.501355 1272.877393,1765.989354 1270.702258,1743.298336 1284.073345,1741.329430 1286.774222,1768.229004 1268.810519,1794.366155 1272.157983,1796.494255 1263.026421,1811.391454 1238.713348,1795.066752"/>
    <poly id="305807764" type="leisure.swimming_pool" color="207,245,201" fill="1" layer="-2.00" shape="973.461720,1534.876660 982.554473,1529.816651 969.377396,1507.464990 960.424123,1513.213985 973.461720,1534.876660"/>
    <poly id="305808690" type="amenity.fire_station" color="237,199,199" fill="1" layer="-1.00" shape="1063.059843,1563.754521 1087.279026,1527.616744 1106.461363,1540.354176 1082.233008,1576.491817 1063.059843,1563.754521"/>
    <poly id="305808690#1" type="building.yes" color="255,230,230" fill="1" layer="-1.00" shape="1063.059843,1563.754521 1087.279026,1527.616744 1106.461363,1540.354176 1082.233008,1576.491817 1063.059843,1563.754521"/>
    <poly id="339333358" type="building.yes" color="255,230,230" fill="1" layer="-1.00" shape="1313.112519,1184.819440 1321.801901,1186.710060 1317.957270,1204.175260 1309.267904,1202.284644 1313.112519,1184.819440"/>
    <poly id="339333358#1" type="shop.convenience" color="237,199,255" fill="1" layer="-1.00" shape="1313.112519,1184.819440 1321.801901,1186.710060 1317.957270,1204.175260 1309.267904,1202.284644 1313.112519,1184.819440"/>
    <poly id="339333540" type="building.apartments" color="255,230,230" fill="1" layer="-1.00" shape="1156.045618,1177.701646 1192.660442,1177.129252 1192.851072,1188.754576 1156.227168,1189.326881 1156.045618,1177.701646"/>
    <poly id="339336802" type="building.apartments" color="255,230,230" fill="1" layer="-1.00" shape="1051.635084,1575.069887 1091.431153,1599.726413 1086.954915,1606.882034 1047.158972,1582.214437 1051.635084,1575.069887"/>
    <poly id="339338172" type="building.apartments" color="255,230,230" fill="1" layer="-1.00" shape="1050.467413,1593.270446 1068.091297,1603.841321 1053.765719,1627.495750 1039.408894,1618.885782 1041.977333,1614.640083 1039.312865,1611.697813 1050.467413,1593.270446"/>
    <poly id="339338652" type="building.apartments" color="255,230,230" fill="1" layer="-1.00" shape="1182.064607,1376.657861 1151.339237,1389.530880 1154.426963,1399.797357 1187.109954,1386.454957 1182.064607,1376.657861"/>
    <poly id="339344510" type="building.yes" color="255,230,230" fill="1" layer="-1.00" shape="1450.147793,1474.839290 1415.818102,1485.702812 1421.463478,1503.369396 1455.784091,1492.494718 1450.147793,1474.839290"/>
    <poly id="339344510#1" type="shop.supermarket" color="237,199,255" fill="1" layer="-1.00" shape="1450.147793,1474.839290 1415.818102,1485.702812 1421.463478,1503.369396 1455.784091,1492.494718 1450.147793,1474.839290"/>
    <poly id="339344983" type="building.apartments" color="255,230,230" fill="1" layer="-1.00" shape="1498.302837,1419.255238 1502.272909,1408.756541 1519.397710,1415.186526 1515.418494,1425.685128 1498.302837,1419.255238"/>
    <poly id="347002322" type="building.gambling" color="255,230,230" fill="1" layer="-1.00" shape="1008.399453,1113.678657 1011.964977,1110.174427 1014.445783,1114.212961 1027.547337,1101.305244 1024.030396,1097.767063 1031.742127,1090.165207 1001.291896,1059.541958 983.307075,1077.272385 987.258008,1081.247221 981.647037,1086.772822 1008.399453,1113.678657"/>
    <poly id="347002395" type="building.yes" color="255,230,230" fill="1" layer="-1.00" shape="901.926785,1149.591146 901.339876,1127.736066 928.062186,1127.024475 928.658158,1148.879644 901.926785,1149.591146"/>
    <poly id="347073306" type="building.yes" color="255,230,230" fill="1" layer="-1.00" shape="1465.328505,1531.959372 1474.220432,1538.410545 1485.680446,1521.550452 1477.647396,1514.042715 1465.328505,1531.959372"/>
    <poly id="347073306#1" type="shop.convenience" color="237,199,255" fill="1" layer="-1.00" shape="1465.328505,1531.959372 1474.220432,1538.410545 1485.680446,1521.550452 1477.647396,1514.042715 1465.328505,1531.959372"/>
    <poly id="348167260" type="amenity.fuel" color="237,199,199" fill="1" layer="-1.00" shape="1185.768512,1348.044676 1137.426816,1366.783795 1119.115492,1319.982617 1141.687817,1311.235521 1185.768512,1348.044676"/>
    <poly id="348167260#1" type="building.yes" color="255,230,230" fill="1" layer="-1.00" shape="1185.768512,1348.044676 1137.426816,1366.783795 1119.115492,1319.982617 1141.687817,1311.235521 1185.768512,1348.044676"/>
    <poly id="349574485" type="building.public" color="255,230,230" fill="1" layer="-1.00" shape="1107.380047,1442.716525 1105.803181,1429.048351 1114.365845,1428.885715 1114.688661,1420.847708 1129.883937,1419.051176 1130.733101,1432.457342 1114.582109,1432.059835 1107.380047,1442.716525"/>
    <poly id="349698310" type="building.yes" color="255,230,230" fill="1" layer="-1.00" shape="1182.462091,1410.678165 1187.109954,1386.454957 1199.927219,1389.028014 1194.560780,1412.989285 1182.462091,1410.678165"/>
    <poly id="349698310#1" type="shop.convenience" color="237,199,255" fill="1" layer="-1.00" shape="1182.462091,1410.678165 1187.109954,1386.454957 1199.927219,1389.028014 1194.560780,1412.989285 1182.462091,1410.678165"/>
    <poly id="349698311" type="amenity.parking" color="184,184,179" fill="1" layer="-1.00" shape="1194.560780,1412.989285 1199.927219,1389.028014 1187.109954,1386.454957 1191.630068,1360.311770 1202.523314,1360.781395 1221.360062,1374.369790 1224.342191,1395.726428 1211.925536,1414.363409 1194.560780,1412.989285"/>
    <poly id="349698479" type="amenity.parking" color="184,184,179" fill="1" layer="-1.00" shape="1035.736124,1767.305805 1039.709120,1769.883403 1024.543652,1779.177963 1015.010770,1763.326949 1036.958038,1730.894103 1051.495576,1730.067230 1056.721223,1741.052725 1051.072148,1753.509879 1046.627342,1750.639426 1035.736124,1767.305805"/>
    <poly id="352013904" type="amenity.restaurant" color="237,199,199" fill="1" layer="-1.00" shape="1404.759607,1486.307193 1400.930164,1474.414242 1421.757362,1467.769609 1425.586993,1479.640390 1404.759607,1486.307193"/>
    <poly id="352013904#1" type="building.yes" color="255,230,230" fill="1" layer="-1.00" shape="1404.759607,1486.307193 1400.930164,1474.414242 1421.757362,1467.769609 1425.586993,1479.640390 1404.759607,1486.307193"/>
    <poly id="358297344" type="amenity.pub" color="237,199,199" fill="1" layer="-1.00" shape="1061.356534,1646.034591 1055.732994,1655.796838 1046.539048,1645.572222 1053.618661,1638.175120 1061.356534,1646.034591"/>
    <poly id="358297344#1" type="building.yes" color="255,230,230" fill="1" layer="-1.00" shape="1061.356534,1646.034591 1055.732994,1655.796838 1046.539048,1645.572222 1053.618661,1638.175120 1061.356534,1646.034591"/>
    <poly id="359269927" type="amenity.pub" color="237,199,199" fill="1" layer="-1.00" shape="1279.540936,1328.784403 1285.015057,1316.547539 1292.553227,1320.467944 1287.235723,1332.551019 1279.540936,1328.784403"/>
    <poly id="359269927#1" type="building.yes" color="255,230,230" fill="1" layer="-1.00" shape="1279.540936,1328.784403 1285.015057,1316.547539 1292.553227,1320.467944 1287.235723,1332.551019 1279.540936,1328.784403"/>
    <poly id="359271119" type="amenity.pub" color="237,199,199" fill="1" layer="-1.00" shape="1124.502767,1632.792834 1113.666909,1625.358602 1121.560670,1613.932112 1132.405661,1621.366440 1124.502767,1632.792834"/>
    <poly id="359271119#1" type="building.yes" color="255,230,230" fill="1" layer="-1.00" shape="1124.502767,1632.792834 1113.666909,1625.358602 1121.560670,1613.932112 1132.405661,1621.366440 1124.502767,1632.792834"/>
    <poly id="418240519" type="amenity.restaurant" color="237,199,199" fill="1" layer="-1.00" shape="988.333200,1764.327026 983.199989,1763.790301 981.083019,1780.096367 986.213906,1780.877075 988.333200,1764.327026"/>
    <poly id="418240519#1" type="building.yes" color="255,230,230" fill="1" layer="-1.00" shape="988.333200,1764.327026 983.199989,1763.790301 981.083019,1780.096367 986.213906,1780.877075 988.333200,1764.327026"/>
    <poly id="426161483" type="waterway.river" color="181,209,209" fill="0" layer="-4.00" shape="1712.832291,1359.283754 1705.223559,1372.298518 1689.636842,1389.229781 1683.828979,1395.274361 1655.500800,1413.181834 1632.267170,1432.835043 1606.004397,1461.942295 1582.416787,1482.368623 1562.199977,1494.852669 1543.438437,1508.825780 1531.500119,1519.370369 1492.726577,1546.395340 1483.502742,1557.509366"/>
    <poly id="426161484" type="waterway.river" color="181,209,209" fill="0" layer="-4.00" shape="1483.502742,1557.509366 1475.187856,1557.540923 1454.461415,1567.990656 1443.171856,1574.648552 1426.533361,1583.285123"/>
    <poly id="467169127" type="natural.water" color="181,209,209" fill="1" layer="-4.00" shape="1485.098097,1654.283815 1456.187861,1651.057678 1457.735283,1644.794850 1446.715863,1594.446794 1461.544170,1595.697386 1491.229422,1634.400443 1490.774171,1642.891922 1484.461146,1643.563681 1485.098097,1654.283815"/>
    <poly id="467169128" type="natural.water" color="181,209,209" fill="1" layer="-4.00" shape="1305.414585,1614.527944 1288.645746,1622.498051 1271.945208,1622.339028 1232.951828,1587.241477 1284.786717,1560.029240 1294.538451,1549.042050 1322.716818,1551.528676 1322.972723,1562.988268 1342.229976,1566.865095 1315.893491,1605.765932 1305.414585,1614.527944"/>
    <poly id="489207547" type="amenity.place_of_worship" color="237,199,199" fill="1" layer="-1.00" shape="1364.791331,1896.276566 1402.471374,1837.298137 1420.891581,1881.982620 1433.102045,1898.336548 1413.740841,1923.617163 1409.839722,1920.219336 1380.721047,1907.353212 1364.791331,1896.276566"/>
    <poly id="493575990" type="building.yes" color="255,230,230" fill="1" layer="-1.00" shape="1272.859520,1262.673049 1285.059622,1264.896519 1287.187102,1253.304352 1274.986984,1251.080879 1272.859520,1262.673049"/>
    <poly id="493575990#1" type="shop.pastry" color="237,199,255" fill="1" layer="-1.00" shape="1272.859520,1262.673049 1285.059622,1264.896519 1287.187102,1253.304352 1274.986984,1251.080879 1272.859520,1262.673049"/>
    <poly id="546252237" type="amenity.parking" color="184,184,179" fill="1" layer="-1.00" shape="946.026560,1893.736297 970.437982,1840.087145 994.765217,1866.493104 1001.758228,1867.236040 1022.856943,1892.424681 1032.967207,1888.782965 1042.997366,1892.615930 1013.256306,1915.447472 1026.109432,1927.625576 1013.369801,1939.061591 1017.350977,1951.344010 1008.394345,1959.410968 991.208419,1935.457334 974.322450,1916.431049 959.041828,1907.113685 946.026560,1893.736297"/>
    <poly id="547542824" type="amenity.veterinary" color="237,199,199" fill="1" layer="-1.00" shape="1600.055151,1704.349225 1605.619963,1696.971335 1592.844002,1687.266471 1586.804754,1694.628743 1600.055151,1704.349225"/>
    <poly id="547542824#1" type="building.yes" color="255,230,230" fill="1" layer="-1.00" shape="1600.055151,1704.349225 1605.619963,1696.971335 1592.844002,1687.266471 1586.804754,1694.628743 1600.055151,1704.349225"/>
    <poly id="547542825" type="amenity.parking" color="184,184,179" fill="1" layer="-1.00" shape="1617.638870,1718.081784 1624.304905,1705.301946 1595.591389,1683.421912 1592.844002,1687.266471 1605.619963,1696.971335 1600.055151,1704.349225 1617.638870,1718.081784"/>
    <poly id="547542826" type="building.industrial" color="255,230,230" fill="1" layer="-1.00" shape="1588.087159,1669.308792 1607.151368,1651.334762 1633.179484,1671.536571 1625.373913,1680.357056 1619.597160,1675.532634 1610.831485,1685.497433 1588.087159,1669.308792"/>
    <poly id="547542828" type="building.house" color="255,230,230" fill="1" layer="-1.00" shape="1599.519138,1730.829791 1587.372446,1718.313792 1593.969598,1707.962239 1611.173838,1720.338038 1599.519138,1730.829791"/>
    <poly id="547542829" type="building.apartments" color="255,230,230" fill="1" layer="-1.00" shape="1583.256198,1714.503464 1592.935124,1702.562049 1583.634341,1694.032799 1577.080108,1699.892850 1580.219041,1711.424374 1583.256198,1714.503464"/>
    <poly id="547542830" type="building.house" color="255,230,230" fill="1" layer="-1.00" shape="1584.046947,1688.102972 1592.256555,1679.020126 1586.529652,1673.752555 1577.788398,1682.120492 1584.046947,1688.102972"/>
    <poly id="548518016" type="building.apartments" color="255,230,230" fill="1" layer="-1.00" shape="1521.777990,1887.559383 1528.500610,1878.384647 1556.126602,1898.457332 1549.404073,1907.620959 1549.159269,1907.452253 1521.777990,1887.559383"/>
    <poly id="548518017" type="building.house" color="255,230,230" fill="1" layer="-1.00" shape="1514.905304,1889.512347 1523.628514,1877.273368 1515.641909,1871.629341 1506.918705,1883.868328 1514.905304,1889.512347"/>
    <poly id="548518018" type="building.house" color="255,230,230" fill="1" layer="-1.00" shape="1489.755706,1894.917638 1498.774202,1883.291468 1510.044850,1891.961449 1501.017222,1903.587520 1489.755706,1894.917638"/>
    <poly id="548518020" type="amenity.parking" color="184,184,179" fill="1" layer="-1.00" shape="1549.159269,1907.452253 1536.248112,1926.261540 1505.103979,1910.480875 1521.777990,1887.559383 1549.159269,1907.452253"/>
    <poly id="548518021" type="amenity.parking" color="184,184,179" fill="1" layer="-1.00" shape="1474.797402,1908.294982 1494.212195,1922.355342 1503.431244,1911.707114 1482.940350,1897.558824 1474.797402,1908.294982"/>
    <poly id="548518022" type="amenity.parking" color="184,184,179" fill="1" layer="-1.00" shape="1442.540011,1959.439045 1459.560170,1929.866053 1460.847688,1927.881931 1466.072147,1919.801970 1449.810511,1908.134172 1437.076672,1896.899342 1413.758363,1927.521418 1428.739508,1941.395167 1442.540011,1959.439045"/>
    <poly id="548518025" type="building.yes" color="255,230,230" fill="1" layer="-1.00" shape="1585.828817,1903.721062 1590.895064,1894.064712 1580.590582,1888.398475 1586.118678,1873.389505 1574.768007,1868.323291 1563.752008,1893.184242 1585.828817,1903.721062"/>
    <poly id="548518025#1" type="shop.car_parts" color="237,199,255" fill="1" layer="-1.00" shape="1585.828817,1903.721062 1590.895064,1894.064712 1580.590582,1888.398475 1586.118678,1873.389505 1574.768007,1868.323291 1563.752008,1893.184242 1585.828817,1903.721062"/>
    <poly id="548518026" type="building.apartments" color="255,230,230" fill="1" layer="-1.00" shape="1594.515022,1905.867032 1590.875054,1898.068430 1602.443849,1892.722148 1607.461182,1903.461987 1599.064091,1907.352361 1594.515022,1905.867032"/>
    <poly id="548518027" type="building.house" color="255,230,230" fill="1" layer="-1.00" shape="1530.068101,1830.840726 1535.292023,1821.873504 1548.180627,1830.281703 1542.482353,1838.268365 1530.068101,1830.840726"/>
    <poly id="548518028" type="building.house" color="255,230,230" fill="1" layer="-1.00" shape="1574.496188,1815.582226 1583.475281,1803.323563 1570.695318,1794.051242 1564.277773,1802.807400 1568.655549,1805.988023 1566.094115,1809.479449 1574.496188,1815.582226"/>
    <poly id="548518029" type="building.house" color="255,230,230" fill="1" layer="-1.00" shape="1545.465147,1815.504524 1550.197283,1808.340471 1558.033554,1813.483988 1553.301520,1820.636947 1545.465147,1815.504524"/>
    <poly id="548518030" type="building.house" color="255,230,230" fill="1" layer="-1.00" shape="1552.082629,1823.076449 1557.982642,1814.991900 1562.659764,1818.363930 1556.759643,1826.459567 1552.082629,1823.076449"/>
    <poly id="583094677" type="building.apartments" color="255,230,230" fill="1" layer="-1.00" shape="1512.016500,1570.747108 1503.451220,1562.590977 1520.394520,1544.984710 1528.950676,1553.140770 1512.016500,1570.747108"/>
    <poly id="584359859" type="landuse.residential" color="235,235,227" fill="1" layer="-3.00" shape="1539.743095,1630.083357 1514.313630,1592.075147 1555.859988,1565.220940 1564.118749,1572.974912 1594.203909,1549.738022 1621.845521,1591.183682 1587.023663,1610.593132 1578.241450,1615.600058 1559.564560,1607.358355 1539.743095,1630.083357"/>
    <poly id="584360012" type="landuse.farmland" color="194,194,130" fill="1" layer="-3.00" shape="1471.894743,1508.586427 1504.712393,1532.778906 1518.554652,1518.780930 1522.167556,1499.805190 1482.833306,1490.900609 1471.894743,1508.586427"/>
    <poly id="584360597" type="building.yes" color="255,230,230" fill="1" layer="-1.00" shape="1223.319102,1429.389398 1227.535844,1415.953785 1268.706212,1417.077653 1273.607416,1428.581465 1269.236535,1439.985912 1223.319102,1429.389398"/>
    <poly id="584360597#1" type="leisure.fitness_centre" color="207,245,201" fill="1" layer="-2.00" shape="1223.319102,1429.389398 1227.535844,1415.953785 1268.706212,1417.077653 1273.607416,1428.581465 1269.236535,1439.985912 1223.319102,1429.389398"/>
    <poly id="584360790" type="amenity.cafe" color="237,199,199" fill="1" layer="-1.00" shape="1228.545607,1426.854894 1230.835607,1420.233092 1265.522522,1420.740695 1263.736406,1432.912858 1228.545607,1426.854894"/>
    <poly id="584360790#1" type="building.yes" color="255,230,230" fill="1" layer="-1.00" shape="1228.545607,1426.854894 1230.835607,1420.233092 1265.522522,1420.740695 1263.736406,1432.912858 1228.545607,1426.854894"/>
    <poly id="584360974" type="landuse.farmland" color="194,194,130" fill="1" layer="-3.00" shape="1326.865059,1531.881409 1318.688296,1516.453367 1326.504019,1493.136595 1342.236314,1486.698345 1352.707572,1492.166240 1363.007060,1515.655625 1326.865059,1531.881409"/>
    <poly id="584361444" type="historic.archaeological_site" color="128,255,128" fill="1" layer="-1.00" shape="1270.853298,1377.535989 1267.711300,1368.189518 1299.628463,1374.915192 1290.908811,1391.557599 1270.853298,1377.535989"/>
    <poly id="584361558" type="amenity.restaurant" color="237,199,199" fill="1" layer="-1.00" shape="1285.700721,1312.594530 1287.229204,1304.479277 1293.588587,1305.671129 1292.060204,1313.775290 1285.700721,1312.594530"/>
    <poly id="584361558#1" type="building.yes" color="255,230,230" fill="1" layer="-1.00" shape="1285.700721,1312.594530 1287.229204,1304.479277 1293.588587,1305.671129 1292.060204,1313.775290 1285.700721,1312.594530"/>
    <poly id="584361929" type="amenity.restaurant" color="237,199,199" fill="1" layer="-1.00" shape="1520.965134,1372.422921 1520.591795,1361.816216 1527.987229,1361.554093 1528.351327,1372.171801 1520.965134,1372.422921"/>
    <poly id="584361929#1" type="building.yes" color="255,230,230" fill="1" layer="-1.00" shape="1520.965134,1372.422921 1520.591795,1361.816216 1527.987229,1361.554093 1528.351327,1372.171801 1520.965134,1372.422921"/>
    <poly id="584362664" type="amenity.restaurant" color="237,199,199" fill="1" layer="-1.00" shape="1056.655859,1709.497810 1055.136773,1701.275939 1064.526341,1699.546175 1066.054440,1707.779225 1056.655859,1709.497810"/>
    <poly id="584362664#1" type="building.yes" color="255,230,230" fill="1" layer="-1.00" shape="1056.655859,1709.497810 1055.136773,1701.275939 1064.526341,1699.546175 1066.054440,1707.779225 1056.655859,1709.497810"/>
    <poly id="678134180" type="building.yes" color="255,230,230" fill="1" layer="-1.00" shape="898.861224,1877.317760 906.008016,1882.054891 909.387168,1876.996100 902.757384,1872.596603 900.896407,1875.396107 900.370270,1875.058384 898.861224,1877.317760"/>
    <poly id="678134182" type="building.yes" color="255,230,230" fill="1" layer="-1.00" shape="935.820268,1674.644980 940.465883,1670.784963 937.857733,1667.676890 938.345299,1667.271142 932.217583,1659.959422 927.084400,1664.225192 935.820268,1674.644980"/>
    <poly id="678134183" type="building.yes" color="255,230,230" fill="1" layer="-1.00" shape="938.720939,1646.911381 944.769941,1644.240336 941.132678,1636.087126 934.130471,1639.181687 936.025099,1643.425378 936.978299,1643.001864 938.720939,1646.911381"/>
    <poly id="678134184" type="building.yes" color="255,230,230" fill="1" layer="-1.00" shape="948.350942,1665.059091 956.756899,1660.225459 951.494737,1651.147356 950.411880,1651.769279 949.244548,1649.750710 941.912317,1653.962339 948.350942,1665.059091"/>
    <poly id="678134186" type="building.yes" color="255,230,230" fill="1" layer="-1.00" shape="1015.514137,1718.956079 1023.833350,1710.761070 1020.325778,1707.222969 1013.885932,1713.572511 1012.999913,1712.687900 1011.009878,1714.654323 1011.479897,1715.135704 1009.388636,1717.189895 1010.735653,1718.544709 1012.946708,1716.369653 1015.514137,1718.956079"/>
    <poly id="678134187" type="building.yes" color="255,230,230" fill="1" layer="-1.00" shape="1003.461350,1707.040695 994.121053,1710.312657 997.098543,1718.736909 1000.843868,1717.419338 1001.368084,1718.921618 1003.227058,1718.262703 1014.456254,1707.333614 1008.869409,1701.701737 1003.461350,1707.040695"/>
    <poly id="678134188" type="building.yes" color="255,230,230" fill="1" layer="-1.00" shape="1004.893598,1625.379153 1010.519071,1631.754499 1012.727830,1629.823426 1040.141498,1660.917062 1036.856054,1663.780652 1038.499387,1665.648476 1048.475624,1656.925757 1019.427648,1623.975451 1024.075325,1619.904763 1018.458980,1613.529495 1004.893598,1625.379153"/>
    <poly id="678134189" type="building.yes" color="255,230,230" fill="1" layer="-1.00" shape="1009.683318,1679.416275 1028.140869,1693.488699 1033.879449,1686.023394 1017.098079,1673.242352 1013.281698,1678.197135 1011.605405,1676.916832 1009.683318,1679.416275"/>
    <poly id="678134190" type="building.yes" color="255,230,230" fill="1" layer="-1.00" shape="981.837567,1681.348036 983.836578,1684.206337 985.591309,1682.991873 986.041500,1683.639431 989.348930,1681.341680 990.006280,1682.279574 998.513609,1676.382193 997.090871,1674.350102 996.052695,1675.072264 994.368778,1672.671687 981.837567,1681.348036"/>
    <poly id="678134191" type="building.yes" color="255,230,230" fill="1" layer="-1.00" shape="974.574744,1669.589060 978.409980,1675.148839 985.088514,1670.576119 981.262406,1665.016425 974.574744,1669.589060"/>
    <poly id="678134192" type="building.yes" color="255,230,230" fill="1" layer="-1.00" shape="966.665319,1661.528396 973.943883,1656.240437 971.303866,1652.644042 970.651400,1653.114770 968.651010,1650.400644 962.034142,1655.206875 966.665319,1661.528396"/>
    <poly id="678134193" type="building.yes" color="255,230,230" fill="1" layer="-1.00" shape="980.810422,1657.825079 987.676645,1652.710676 985.441512,1649.728132 983.428618,1651.217424 981.202398,1648.257148 976.330920,1651.870997 980.810422,1657.825079"/>
    <poly id="678134194" type="building.yes" color="255,230,230" fill="1" layer="-1.00" shape="994.255985,1650.898715 996.588658,1654.181648 999.225592,1652.332273 1001.810527,1655.961428 1006.376961,1652.755068 1003.359982,1648.489617 1002.670905,1648.971087 1001.229911,1646.938822 997.609868,1649.477607 997.168592,1648.852315 994.255985,1650.898715"/>
    <poly id="678134195" type="building.yes" color="255,230,230" fill="1" layer="-1.00" shape="1009.084491,1654.045159 1014.604975,1650.326576 1012.426711,1647.122741 1011.921626,1647.450681 1008.285379,1642.081327 1003.260956,1645.460797 1009.084491,1654.045159"/>
    <poly id="678134196" type="building.yes" color="255,230,230" fill="1" layer="-1.00" shape="1015.776490,1664.401260 1022.275865,1657.553183 1017.707590,1653.261908 1011.217236,1660.121165 1015.776490,1664.401260"/>
    <poly id="678134197" type="building.yes" color="255,230,230" fill="1" layer="-1.00" shape="999.052471,1669.610622 1002.514583,1675.055958 1010.337239,1670.139200 1006.875235,1664.682771 999.052471,1669.610622"/>
    <poly id="678134213" type="building.yes" color="255,230,230" fill="1" layer="-1.00" shape="941.800790,1857.195274 948.068313,1844.943563 941.101685,1841.417043 934.834170,1853.668758 941.800790,1857.195274"/>
    <poly id="678134215" type="building.yes" color="255,230,230" fill="1" layer="-1.00" shape="907.425505,1883.676546 911.606587,1886.444612 916.476328,1879.148457 912.304370,1876.380475 907.425505,1883.676546"/>
    <poly id="678134225" type="building.yes" color="255,230,230" fill="1" layer="-1.00" shape="895.669394,1827.000284 902.556988,1829.239447 904.699596,1822.727083 897.812102,1820.476828 895.669394,1827.000284"/>
    <poly id="678134226" type="building.yes" color="255,230,230" fill="1" layer="-1.00" shape="905.566552,1831.397481 920.542646,1836.275406 922.957695,1828.944885 909.291810,1824.489751 907.628389,1829.553719 906.309149,1829.119748 905.566552,1831.397481"/>
    <poly id="678134227" type="building.yes" color="255,230,230" fill="1" layer="-1.00" shape="928.687483,1806.029479 893.584370,1795.670240 891.585990,1802.372524 889.419940,1801.730886 888.562159,1804.606450 925.831393,1815.596226 926.708172,1812.643207 929.775145,1813.559586 928.687483,1806.029479"/>
    <poly id="678134963" type="building.yes" color="255,230,230" fill="1" layer="-1.00" shape="994.811651,1568.308296 1011.917707,1577.676301 1017.480310,1567.602898 1000.374241,1558.234883 994.811651,1568.308296"/>
    <poly id="678134965" type="building.yes" color="255,230,230" fill="1" layer="-1.00" shape="899.974357,1676.157293 907.792792,1669.754196 898.652214,1658.698405 890.833777,1665.101509 899.974357,1676.157293"/>