<?xml version="1.0" encoding="UTF-8"?>

<!-- generated on Thu Nov 14 18:21:32 2019 by Eclipse SUMO netconvert Version 1.3.1
<configuration xmlns:xsi="http://www.w3.org/2001/XMLSchema-instance" xsi:noNamespaceSchemaLocation="http://sumo.dlr.de/xsd/netconvertConfiguration.xsd">

    <input>
        <type-files value="/usr/share/sumo/data/typemap/osmNetconvert.typ.xml"/>
        <osm-files value="osm_bbox.osm.xml"/>
    </input>

    <output>
        <output-file value="osm.net.xml"/>
        <output.street-names value="true"/>
        <output.original-names value="true"/>
    </output>

    <projection>
        <proj.utm value="true"/>
    </projection>

    <processing>
        <geometry.remove value="true"/>
        <roundabouts.guess value="true"/>
        <lefthand value="true"/>
    </processing>

    <tls_building>
        <tls.discard-simple value="true"/>
        <tls.join value="true"/>
        <tls.guess-signals value="true"/>
        <tls.default-type value="actuated"/>
    </tls_building>

    <ramp_guessing>
        <ramps.guess value="true"/>
    </ramp_guessing>

    <junctions>
        <junctions.join value="true"/>
        <junctions.corner-detail value="5"/>
    </junctions>

    <report>
        <verbose value="true"/>
    </report>

</configuration>
-->

<net version="1.3" junctionCornerDetail="5" lefthand="true" limitTurnSpeed="5.50" xmlns:xsi="http://www.w3.org/2001/XMLSchema-instance" xsi:noNamespaceSchemaLocation="http://sumo.dlr.de/xsd/net_file.xsd">

    <location netOffset="-585520.36,-3871456.92" convBoundary="0.00,-0.00,2107.18,2842.45" origBoundary="135.936974,34.982082,135.960156,35.007552" projParameter="+proj=utm +zone=53 +ellps=WGS84 +datum=WGS84 +units=m +no_defs"/>

    <type id="highway.bridleway" priority="1" numLanes="1" speed="2.78" allow="pedestrian" oneway="1" width="2.00"/>
    <type id="highway.bus_guideway" priority="1" numLanes="1" speed="27.78" allow="bus" oneway="1"/>
    <type id="highway.cycleway" priority="1" numLanes="1" speed="8.33" allow="bicycle" oneway="0" width="1.00"/>
    <type id="highway.footway" priority="1" numLanes="1" speed="2.78" allow="pedestrian" oneway="1" width="2.00"/>
    <type id="highway.ford" priority="1" numLanes="1" speed="2.78" allow="army" oneway="0"/>
    <type id="highway.living_street" priority="2" numLanes="1" speed="2.78" disallow="tram rail_urban rail rail_electric rail_fast ship" oneway="0"/>
    <type id="highway.motorway" priority="14" numLanes="2" speed="39.44" allow="private emergency authority army vip passenger hov taxi bus coach delivery truck trailer motorcycle evehicle custom1 custom2" oneway="1"/>
    <type id="highway.motorway_link" priority="9" numLanes="1" speed="22.22" allow="private emergency authority army vip passenger hov taxi bus coach delivery truck trailer motorcycle evehicle custom1 custom2" oneway="1"/>
    <type id="highway.path" priority="1" numLanes="1" speed="2.78" allow="pedestrian bicycle" oneway="1" width="2.00"/>
    <type id="highway.pedestrian" priority="1" numLanes="1" speed="2.78" allow="pedestrian" oneway="1" width="2.00"/>
    <type id="highway.primary" priority="12" numLanes="2" speed="27.78" disallow="tram rail_urban rail rail_electric rail_fast ship" oneway="0"/>
    <type id="highway.primary_link" priority="7" numLanes="1" speed="22.22" disallow="tram rail_urban rail rail_electric rail_fast ship" oneway="0"/>
    <type id="highway.raceway" priority="15" numLanes="2" speed="83.33" allow="vip" oneway="0"/>
    <type id="highway.residential" priority="3" numLanes="1" speed="13.89" disallow="tram rail_urban rail rail_electric rail_fast ship" oneway="0"/>
    <type id="highway.secondary" priority="11" numLanes="2" speed="27.78" disallow="tram rail_urban rail rail_electric rail_fast ship" oneway="0"/>
    <type id="highway.secondary_link" priority="6" numLanes="1" speed="22.22" disallow="tram rail_urban rail rail_electric rail_fast ship" oneway="0"/>
    <type id="highway.service" priority="1" numLanes="1" speed="5.56" allow="pedestrian delivery bicycle" oneway="0"/>
    <type id="highway.stairs" priority="1" numLanes="1" speed="1.39" allow="pedestrian" oneway="1" width="2.00"/>
    <type id="highway.step" priority="1" numLanes="1" speed="1.39" allow="pedestrian" oneway="1" width="2.00"/>
    <type id="highway.steps" priority="1" numLanes="1" speed="1.39" allow="pedestrian" oneway="1" width="2.00"/>
    <type id="highway.tertiary" priority="10" numLanes="1" speed="22.22" disallow="tram rail_urban rail rail_electric rail_fast ship" oneway="0"/>
    <type id="highway.tertiary_link" priority="5" numLanes="1" speed="22.22" disallow="tram rail_urban rail rail_electric rail_fast ship" oneway="0"/>
    <type id="highway.track" priority="1" numLanes="1" speed="5.56" disallow="tram rail_urban rail rail_electric rail_fast ship" oneway="0"/>
    <type id="highway.trunk" priority="13" numLanes="2" speed="27.78" disallow="pedestrian bicycle tram rail_urban rail rail_electric rail_fast ship" oneway="0"/>
    <type id="highway.trunk_link" priority="8" numLanes="1" speed="22.22" disallow="pedestrian bicycle tram rail_urban rail rail_electric rail_fast ship" oneway="0"/>
    <type id="highway.unclassified" priority="4" numLanes="1" speed="13.89" disallow="tram rail_urban rail rail_electric rail_fast ship" oneway="0"/>
    <type id="highway.unsurfaced" priority="1" numLanes="1" speed="8.33" disallow="tram rail_urban rail rail_electric rail_fast ship" oneway="0"/>
    <type id="railway.highspeed" priority="21" numLanes="1" speed="69.44" allow="rail_fast" oneway="1"/>
    <type id="railway.light_rail" priority="19" numLanes="1" speed="27.78" allow="rail_urban" oneway="1"/>
    <type id="railway.preserved" priority="16" numLanes="1" speed="27.78" allow="rail" oneway="1"/>
    <type id="railway.rail" priority="20" numLanes="1" speed="44.44" allow="rail" oneway="1"/>
    <type id="railway.subway" priority="18" numLanes="1" speed="27.78" allow="rail_urban" oneway="1"/>
    <type id="railway.tram" priority="17" numLanes="1" speed="13.89" allow="tram" oneway="1"/>

    <edge id=":121366888#1-AddedOffRampNode_0" function="internal">
        <lane id=":121366888#1-AddedOffRampNode_0_0" index="0" disallow="pedestrian bicycle tram rail_urban rail rail_electric rail_fast ship" speed="27.78" length="8.27" shape="1142.10,1283.54 1140.51,1281.59 1140.02,1279.76 1139.53,1277.93 1137.95,1275.98"/>
        <lane id=":121366888#1-AddedOffRampNode_0_1" index="1" disallow="pedestrian bicycle tram rail_urban rail rail_electric rail_fast ship" speed="27.78" length="8.27" shape="1142.10,1283.54 1135.92,1278.45"/>
        <lane id=":121366888#1-AddedOffRampNode_0_2" index="2" disallow="pedestrian bicycle tram rail_urban rail rail_electric rail_fast ship" speed="27.78" length="8.27" shape="1140.06,1286.01 1133.89,1280.92"/>
    </edge>
    <edge id=":121371547-AddedOffRampNode_0" function="internal">
        <lane id=":121371547-AddedOffRampNode_0_0" index="0" disallow="tram rail_urban rail rail_electric rail_fast ship" speed="13.89" length="8.40" shape="878.29,1064.13 879.67,1066.23 879.98,1068.09 880.29,1069.96 881.67,1072.06"/>
        <lane id=":121371547-AddedOffRampNode_0_1" index="1" disallow="tram rail_urban rail rail_electric rail_fast ship" speed="13.89" length="8.40" shape="878.29,1064.13 883.94,1069.80"/>
    </edge>
    <edge id=":1359094807_0" function="internal">
        <lane id=":1359094807_0_0" index="0" disallow="tram rail_urban rail rail_electric rail_fast ship" speed="3.65" length="4.67" shape="1465.24,969.14 1466.64,969.49 1467.50,969.24 1467.82,968.41 1467.60,966.98"/>
    </edge>
    <edge id=":1359094837_0" function="internal">
        <lane id=":1359094837_0_0" index="0" disallow="tram rail_urban rail rail_electric rail_fast ship" speed="3.65" length="4.67" shape="1013.73,1016.35 1012.41,1015.77 1011.52,1015.86 1011.06,1016.63 1011.03,1018.07"/>
    </edge>
    <edge id=":1359094840_0" function="internal">
        <lane id=":1359094840_0_0" index="0" disallow="tram rail_urban rail rail_electric rail_fast ship" speed="13.89" length="15.63" shape="1269.02,1023.42 1256.01,1032.07"/>
    </edge>
    <edge id=":1359094840_1" function="internal">
        <lane id=":1359094840_1_0" index="0" disallow="tram rail_urban rail rail_electric rail_fast ship" speed="10.39" length="5.81" shape="1269.02,1023.42 1266.48,1025.67 1265.32,1027.80"/>
    </edge>
    <edge id=":1359094840_2" function="internal">
        <lane id=":1359094840_2_0" index="0" disallow="tram rail_urban rail rail_electric rail_fast ship" speed="3.65" length="2.34" shape="1269.02,1023.42 1268.42,1024.73 1268.49,1025.62"/>
    </edge>
    <edge id=":1359094840_9" function="internal">
        <lane id=":1359094840_9_0" index="0" disallow="tram rail_urban rail rail_electric rail_fast ship" speed="10.39" length="10.00" shape="1265.32,1027.80 1264.79,1028.78 1263.95,1032.75 1263.95,1037.57"/>
    </edge>
    <edge id=":1359094840_10" function="internal">
        <lane id=":1359094840_10_0" index="0" disallow="tram rail_urban rail rail_electric rail_fast ship" speed="3.65" length="2.34" shape="1268.49,1025.62 1269.25,1026.10 1270.69,1026.15"/>
    </edge>
    <edge id=":1359094840_3" function="internal">
        <lane id=":1359094840_3_0" index="0" disallow="tram rail_urban rail rail_electric rail_fast ship" speed="9.21" length="12.29" shape="1267.14,1037.32 1267.10,1033.41 1267.68,1030.24 1268.88,1027.83 1270.69,1026.15"/>
    </edge>
    <edge id=":1359094840_4" function="internal">
        <lane id=":1359094840_4_0" index="0" disallow="tram rail_urban rail rail_electric rail_fast ship" speed="7.40" length="16.83" shape="1267.14,1037.32 1266.07,1032.37 1263.86,1029.85 1260.50,1029.75 1256.01,1032.07"/>
    </edge>
    <edge id=":1359094840_5" function="internal">
        <lane id=":1359094840_5_0" index="0" disallow="tram rail_urban rail rail_electric rail_fast ship" speed="3.65" length="4.67" shape="1267.14,1037.32 1266.25,1036.18 1265.42,1035.85 1264.65,1036.31 1263.95,1037.57"/>
    </edge>
    <edge id=":1359094840_6" function="internal">
        <lane id=":1359094840_6_0" index="0" disallow="tram rail_urban rail rail_electric rail_fast ship" speed="5.66" length="9.24" shape="1257.84,1034.69 1260.31,1033.42 1262.15,1033.47 1263.36,1034.86 1263.95,1037.57"/>
    </edge>
    <edge id=":1359094840_7" function="internal">
        <lane id=":1359094840_7_0" index="0" disallow="tram rail_urban rail rail_electric rail_fast ship" speed="13.89" length="15.44" shape="1257.84,1034.69 1270.69,1026.15"/>
    </edge>
    <edge id=":1359094840_8" function="internal">
        <lane id=":1359094840_8_0" index="0" disallow="tram rail_urban rail rail_electric rail_fast ship" speed="3.65" length="2.34" shape="1257.84,1034.69 1258.36,1033.35 1258.23,1032.47"/>
    </edge>
    <edge id=":1359094840_11" function="internal">
        <lane id=":1359094840_11_0" index="0" disallow="tram rail_urban rail rail_electric rail_fast ship" speed="3.65" length="2.34" shape="1258.23,1032.47 1257.45,1032.04 1256.01,1032.07"/>
    </edge>
    <edge id=":1359094847_0" function="internal">
        <lane id=":1359094847_0_0" index="0" disallow="tram rail_urban rail rail_electric rail_fast ship" speed="22.22" length="15.16" shape="1483.98,1030.60 1481.49,1027.75 1479.06,1024.83 1476.70,1021.84 1474.43,1018.83"/>
    </edge>
    <edge id=":1359094847_1" function="internal">
        <lane id=":1359094847_1_0" index="0" disallow="tram rail_urban rail rail_electric rail_fast ship" speed="7.38" length="6.66" shape="1483.98,1030.60 1479.91,1027.08 1478.65,1026.83"/>
    </edge>
    <edge id=":1359094847_2" function="internal">
        <lane id=":1359094847_2_0" index="0" disallow="tram rail_urban rail rail_electric rail_fast ship" speed="3.65" length="2.34" shape="1483.98,1030.60 1482.58,1030.24 1481.72,1030.47"/>
    </edge>
    <edge id=":1359094847_9" function="internal">
        <lane id=":1359094847_9_0" index="0" disallow="tram rail_urban rail rail_electric rail_fast ship" speed="7.38" length="10.87" shape="1478.65,1026.83 1476.59,1026.42 1474.01,1028.61 1472.17,1033.67"/>
    </edge>
    <edge id=":1359094847_10" function="internal">
        <lane id=":1359094847_10_0" index="0" disallow="tram rail_urban rail rail_electric rail_fast ship" speed="3.65" length="2.34" shape="1481.72,1030.47 1481.39,1031.31 1481.60,1032.73"/>
    </edge>
    <edge id=":1359094847_3" function="internal">
        <lane id=":1359094847_3_0" index="0" disallow="tram rail_urban rail rail_electric rail_fast ship" speed="5.58" length="9.36" shape="1475.29,1034.37 1476.27,1031.67 1477.65,1030.50 1479.43,1030.85 1481.60,1032.73"/>
    </edge>
    <edge id=":1359094847_4" function="internal">
        <lane id=":1359094847_4_0" index="0" disallow="tram rail_urban rail rail_electric rail_fast ship" speed="12.36" length="15.98" shape="1475.29,1034.37 1476.17,1029.28 1476.32,1025.00 1475.74,1021.51 1474.43,1018.83"/>
    </edge>
    <edge id=":1359094847_5" function="internal">
        <lane id=":1359094847_5_0" index="0" disallow="tram rail_urban rail rail_electric rail_fast ship" speed="3.65" length="4.67" shape="1475.29,1034.37 1474.78,1033.03 1474.09,1032.46 1473.22,1032.68 1472.17,1033.67"/>
    </edge>
    <edge id=":1359094847_6" function="internal">
        <lane id=":1359094847_6_0" index="0" disallow="tram rail_urban rail rail_electric rail_fast ship" speed="11.39" length="13.50" shape="1471.69,1020.50 1472.71,1022.67 1473.13,1025.60 1472.95,1029.26 1472.17,1033.67"/>
    </edge>
    <edge id=":1359094847_7" function="internal">
        <lane id=":1359094847_7_0" index="0" disallow="tram rail_urban rail rail_electric rail_fast ship" speed="22.22" length="15.75" shape="1471.69,1020.50 1474.01,1023.59 1476.50,1026.73 1479.06,1029.82 1481.60,1032.73"/>
    </edge>
    <edge id=":1359094847_8" function="internal">
        <lane id=":1359094847_8_0" index="0" disallow="tram rail_urban rail rail_electric rail_fast ship" speed="3.65" length="2.51" shape="1471.69,1020.50 1473.00,1021.11 1473.89,1021.03 1473.98,1020.89"/>
    </edge>
    <edge id=":1359094847_11" function="internal">
        <lane id=":1359094847_11_0" index="0" disallow="tram rail_urban rail rail_electric rail_fast ship" speed="3.65" length="2.18" shape="1473.98,1020.89 1474.37,1020.27 1474.43,1018.83"/>
    </edge>
    <edge id=":1359094886_0" function="internal">
        <lane id=":1359094886_0_0" index="0" disallow="tram rail_urban rail rail_electric rail_fast ship" speed="3.65" length="4.67" shape="942.45,1083.51 942.72,1082.10 942.43,1081.25 941.57,1080.98 940.16,1081.28"/>
    </edge>
    <edge id=":1359094944_0" function="internal">
        <lane id=":1359094944_0_0" index="0" disallow="tram rail_urban rail rail_electric rail_fast ship" speed="13.89" length="8.58" shape="947.07,1136.36 948.86,1138.15 949.98,1139.51 950.83,1141.04 951.84,1143.36"/>
    </edge>
    <edge id=":1359094944_1" function="internal">
        <lane id=":1359094944_1_0" index="0" disallow="pedestrian bicycle tram rail_urban rail rail_electric rail_fast ship" speed="18.05" length="8.51" shape="949.31,1134.07 955.57,1139.84"/>
    </edge>
    <edge id=":1359094968_0" function="internal">
        <lane id=":1359094968_0_0" index="0" disallow="tram rail_urban rail rail_electric rail_fast ship" speed="6.59" length="9.20" shape="1075.50,1142.78 1073.00,1143.20 1070.96,1142.74 1069.39,1141.39 1068.26,1139.15"/>
    </edge>
    <edge id=":1359094968_1" function="internal">
        <lane id=":1359094968_1_0" index="0" disallow="tram rail_urban rail rail_electric rail_fast ship" speed="13.89" length="14.53" shape="1075.50,1142.78 1061.66,1147.22"/>
    </edge>
    <edge id=":1359094968_2" function="internal">
        <lane id=":1359094968_2_0" index="0" disallow="tram rail_urban rail rail_electric rail_fast ship" speed="7.95" length="5.96" shape="1075.50,1142.78 1071.95,1144.49 1070.63,1146.02"/>
    </edge>
    <edge id=":1359094968_3" function="internal">
        <lane id=":1359094968_3_0" index="0" disallow="tram rail_urban rail rail_electric rail_fast ship" speed="3.65" length="2.34" shape="1075.50,1142.78 1074.60,1143.90 1074.46,1144.79"/>
    </edge>
    <edge id=":1359094968_16" function="internal">
        <lane id=":1359094968_16_0" index="0" disallow="tram rail_urban rail rail_electric rail_fast ship" speed="7.95" length="8.34" shape="1070.63,1146.02 1069.85,1146.92 1069.17,1150.07 1069.94,1153.93"/>
    </edge>
    <edge id=":1359094968_17" function="internal">
        <lane id=":1359094968_17_0" index="0" disallow="tram rail_urban rail rail_electric rail_fast ship" speed="3.65" length="2.34" shape="1074.46,1144.79 1075.08,1145.43 1076.47,1145.83"/>
    </edge>
    <edge id=":1359094968_4" function="internal">
        <lane id=":1359094968_4_0" index="0" disallow="tram rail_urban rail rail_electric rail_fast ship" speed="6.44" length="9.03" shape="1072.96,1152.87 1072.47,1150.43 1072.90,1148.44 1074.23,1146.91 1076.47,1145.83"/>
    </edge>
    <edge id=":1359094968_5" function="internal">
        <lane id=":1359094968_5_0" index="0" disallow="tram rail_urban rail rail_electric rail_fast ship" speed="13.89" length="14.49" shape="1072.96,1152.87 1068.26,1139.15"/>
    </edge>
    <edge id=":1359094968_6" function="internal">
        <lane id=":1359094968_6_0" index="0" disallow="tram rail_urban rail rail_electric rail_fast ship" speed="8.11" length="14.32" shape="1072.96,1152.87 1071.15,1149.38 1068.67,1147.28 1065.50,1146.56 1061.66,1147.22"/>
    </edge>
    <edge id=":1359094968_7" function="internal">
        <lane id=":1359094968_7_0" index="0" disallow="tram rail_urban rail rail_electric rail_fast ship" speed="3.65" length="4.67" shape="1072.96,1152.87 1071.81,1152.00 1070.92,1151.89 1070.30,1152.53 1069.94,1153.93"/>
    </edge>
    <edge id=":1359094968_8" function="internal">
        <lane id=":1359094968_8_0" index="0" disallow="tram rail_urban rail rail_electric rail_fast ship" speed="6.63" length="9.25" shape="1062.65,1150.27 1065.13,1149.84 1067.17,1150.31 1068.77,1151.67 1069.94,1153.93"/>
    </edge>
    <edge id=":1359094968_9" function="internal">
        <lane id=":1359094968_9_0" index="0" disallow="tram rail_urban rail rail_electric rail_fast ship" speed="13.89" length="14.51" shape="1062.65,1150.27 1076.47,1145.83"/>
    </edge>
    <edge id=":1359094968_10" function="internal">
        <lane id=":1359094968_10_0" index="0" disallow="tram rail_urban rail rail_electric rail_fast ship" speed="7.99" length="5.90" shape="1062.65,1150.27 1066.15,1148.55 1067.47,1147.04"/>
    </edge>
    <edge id=":1359094968_11" function="internal">
        <lane id=":1359094968_11_0" index="0" disallow="tram rail_urban rail rail_electric rail_fast ship" speed="3.65" length="2.34" shape="1062.65,1150.27 1063.54,1149.13 1063.68,1148.25"/>
    </edge>
    <edge id=":1359094968_18" function="internal">
        <lane id=":1359094968_18_0" index="0" disallow="tram rail_urban rail rail_electric rail_fast ship" speed="7.99" length="8.32" shape="1067.47,1147.04 1068.26,1146.13 1068.96,1142.99 1068.26,1139.15"/>
    </edge>
    <edge id=":1359094968_19" function="internal">
        <lane id=":1359094968_19_0" index="0" disallow="tram rail_urban rail rail_electric rail_fast ship" speed="3.65" length="2.34" shape="1063.68,1148.25 1063.05,1147.61 1061.66,1147.22"/>
    </edge>
    <edge id=":1359094968_12" function="internal">
        <lane id=":1359094968_12_0" index="0" disallow="tram rail_urban rail rail_electric rail_fast ship" speed="6.49" length="9.03" shape="1065.23,1140.17 1065.67,1142.60 1065.22,1144.59 1063.89,1146.13 1061.66,1147.22"/>
    </edge>
    <edge id=":1359094968_13" function="internal">
        <lane id=":1359094968_13_0" index="0" disallow="tram rail_urban rail rail_electric rail_fast ship" speed="13.89" length="14.55" shape="1065.23,1140.17 1069.94,1153.93"/>
    </edge>
    <edge id=":1359094968_14" function="internal">
        <lane id=":1359094968_14_0" index="0" disallow="tram rail_urban rail rail_electric rail_fast ship" speed="8.07" length="14.31" shape="1065.23,1140.17 1066.97,1143.65 1069.43,1145.76 1072.59,1146.48 1076.47,1145.83"/>
    </edge>
    <edge id=":1359094968_15" function="internal">
        <lane id=":1359094968_15_0" index="0" disallow="tram rail_urban rail rail_electric rail_fast ship" speed="3.65" length="4.67" shape="1065.23,1140.17 1066.37,1141.05 1067.25,1141.18 1067.88,1140.55 1068.26,1139.15"/>
    </edge>
    <edge id=":1359095002_0" function="internal">
        <lane id=":1359095002_0_0" index="0" disallow="tram rail_urban rail rail_electric rail_fast ship" speed="22.22" length="9.24" shape="1628.65,1181.67 1622.00,1175.25"/>
    </edge>
    <edge id=":1359095002_1" function="internal">
        <lane id=":1359095002_1_0" index="0" allow="pedestrian delivery bicycle" speed="7.16" length="4.72" shape="1628.65,1181.67 1626.49,1180.22 1624.41,1179.80"/>
    </edge>
    <edge id=":1359095002_2" function="internal">
        <lane id=":1359095002_2_0" index="0" disallow="tram rail_urban rail rail_electric rail_fast ship" speed="3.65" length="2.34" shape="1628.65,1181.67 1627.22,1181.44 1626.38,1181.76"/>
    </edge>
    <edge id=":1359095002_9" function="internal">
        <lane id=":1359095002_9_0" index="0" allow="pedestrian delivery bicycle" speed="7.16" length="5.40" shape="1624.41,1179.80 1624.26,1179.77 1621.95,1180.33 1619.55,1181.89"/>
    </edge>
    <edge id=":1359095002_10" function="internal">
        <lane id=":1359095002_10_0" index="0" disallow="tram rail_urban rail rail_electric rail_fast ship" speed="3.65" length="2.34" shape="1626.38,1181.76 1626.13,1182.61 1626.47,1184.02"/>
    </edge>
    <edge id=":1359095002_3" function="internal">
        <lane id=":1359095002_3_0" index="0" disallow="tram rail_urban rail rail_electric rail_fast ship" speed="5.43" length="5.40" shape="1621.61,1184.33 1622.94,1183.45 1624.19,1183.11 1625.37,1183.29 1626.47,1184.02"/>
    </edge>
    <edge id=":1359095002_4" function="internal">
        <lane id=":1359095002_4_0" index="0" disallow="tram rail_urban rail rail_electric rail_fast ship" speed="6.80" length="10.57" shape="1621.61,1184.33 1623.56,1182.14 1624.27,1179.90 1623.75,1177.60 1622.00,1175.25"/>
    </edge>
    <edge id=":1359095002_5" function="internal">
        <lane id=":1359095002_5_0" index="0" allow="pedestrian delivery bicycle" speed="3.65" length="4.67" shape="1621.61,1184.33 1622.01,1182.95 1621.80,1182.08 1620.98,1181.73 1619.55,1181.89"/>
    </edge>
    <edge id=":1359095002_6" function="internal">
        <lane id=":1359095002_6_0" index="0" allow="pedestrian delivery bicycle" speed="4.96" length="5.10" shape="1619.73,1177.51 1620.58,1178.64 1620.83,1179.75 1620.49,1180.83 1619.55,1181.89"/>
    </edge>
    <edge id=":1359095002_7" function="internal">
        <lane id=":1359095002_7_0" index="0" disallow="tram rail_urban rail rail_electric rail_fast ship" speed="22.22" length="9.37" shape="1619.73,1177.51 1626.47,1184.02"/>
    </edge>
    <edge id=":1359095002_8" function="internal">
        <lane id=":1359095002_8_0" index="0" disallow="tram rail_urban rail rail_electric rail_fast ship" speed="3.65" length="2.34" shape="1619.73,1177.51 1621.15,1177.79 1622.00,1177.51"/>
    </edge>
    <edge id=":1359095002_11" function="internal">
        <lane id=":1359095002_11_0" index="0" disallow="tram rail_urban rail rail_electric rail_fast ship" speed="3.65" length="2.34" shape="1622.00,1177.51 1622.28,1176.66 1622.00,1175.25"/>
    </edge>
    <edge id=":1359095021_0" function="internal">
        <lane id=":1359095021_0_0" index="0" disallow="tram rail_urban rail rail_electric rail_fast ship" speed="13.01" length="10.20" shape="1094.33,1222.71 1092.17,1220.61 1090.87,1218.96 1090.04,1217.04 1089.33,1214.13"/>
    </edge>
    <edge id=":1359095021_1" function="internal">
        <lane id=":1359095021_1_0" index="0" disallow="tram rail_urban rail rail_electric rail_fast ship" speed="7.26" length="5.24" shape="1094.33,1222.71 1091.30,1220.46 1089.88,1220.06"/>
    </edge>
    <edge id=":1359095021_2" function="internal">
        <lane id=":1359095021_2_0" index="0" disallow="tram rail_urban rail rail_electric rail_fast ship" speed="3.65" length="2.34" shape="1094.33,1222.71 1092.90,1222.47 1092.06,1222.77"/>
    </edge>
    <edge id=":1359095021_9" function="internal">
        <lane id=":1359095021_9_0" index="0" disallow="tram rail_urban rail rail_electric rail_fast ship" speed="7.26" length="7.23" shape="1089.88,1220.06 1088.51,1219.67 1085.96,1220.35 1083.65,1222.50"/>
    </edge>
    <edge id=":1359095021_10" function="internal">
        <lane id=":1359095021_10_0" index="0" disallow="tram rail_urban rail rail_electric rail_fast ship" speed="3.65" length="2.34" shape="1092.06,1222.77 1091.80,1223.63 1092.12,1225.03"/>
    </edge>
    <edge id=":1359095021_3" function="internal">
        <lane id=":1359095021_3_0" index="0" disallow="tram rail_urban rail rail_electric rail_fast ship" speed="5.83" length="7.61" shape="1085.62,1225.20 1087.07,1223.81 1088.65,1223.31 1090.33,1223.72 1092.12,1225.03"/>
    </edge>
    <edge id=":1359095021_4" function="internal">
        <lane id=":1359095021_4_0" index="0" disallow="tram rail_urban rail rail_electric rail_fast ship" speed="10.72" length="12.01" shape="1085.62,1225.20 1087.63,1222.17 1088.92,1219.32 1089.49,1216.64 1089.33,1214.13"/>
    </edge>
    <edge id=":1359095021_5" function="internal">
        <lane id=":1359095021_5_0" index="0" disallow="tram rail_urban rail rail_electric rail_fast ship" speed="3.70" length="4.87" shape="1085.62,1225.20 1086.13,1223.78 1085.98,1222.86 1085.15,1222.44 1083.65,1222.50"/>
    </edge>
    <edge id=":1359095021_6" function="internal">
        <lane id=":1359095021_6_0" index="0" disallow="tram rail_urban rail rail_electric rail_fast ship" speed="9.01" length="8.36" shape="1086.20,1214.80 1086.31,1216.56 1085.92,1218.43 1085.04,1220.41 1083.65,1222.50"/>
    </edge>
    <edge id=":1359095021_7" function="internal">
        <lane id=":1359095021_7_0" index="0" disallow="tram rail_urban rail rail_electric rail_fast ship" speed="13.89" length="12.07" shape="1086.20,1214.80 1087.06,1217.98 1088.19,1220.46 1089.81,1222.67 1092.12,1225.03"/>
    </edge>
    <edge id=":1359095021_8" function="internal">
        <lane id=":1359095021_8_0" index="0" disallow="tram rail_urban rail rail_electric rail_fast ship" speed="3.65" length="2.34" shape="1086.20,1214.80 1087.24,1215.80 1088.10,1216.03"/>
    </edge>
    <edge id=":1359095021_11" function="internal">
        <lane id=":1359095021_11_0" index="0" disallow="tram rail_urban rail rail_electric rail_fast ship" speed="3.65" length="2.34" shape="1088.10,1216.03 1088.80,1215.47 1089.33,1214.13"/>
    </edge>
    <edge id=":1359095050_0" function="internal">
        <lane id=":1359095050_0_0" index="0" disallow="pedestrian bicycle tram rail_urban rail rail_electric rail_fast ship" speed="25.00" length="7.82" shape="1067.91,1216.36 1062.06,1211.16"/>
    </edge>
    <edge id=":1359095050_1" function="internal">
        <lane id=":1359095050_1_0" index="0" disallow="pedestrian bicycle tram rail_urban rail rail_electric rail_fast ship" speed="27.78" length="7.99" shape="1065.82,1218.79 1059.89,1213.51"/>
        <lane id=":1359095050_1_1" index="1" disallow="pedestrian bicycle tram rail_urban rail rail_electric rail_fast ship" speed="27.78" length="7.99" shape="1063.74,1221.21 1057.72,1215.87"/>
    </edge>
    <edge id=":1359095098_0" function="internal">
        <lane id=":1359095098_0_0" index="0" disallow="tram rail_urban rail rail_electric rail_fast ship" speed="4.73" length="5.58" shape="1515.68,1261.60 1514.30,1262.47 1513.15,1262.57 1512.23,1261.87 1511.53,1260.39"/>
    </edge>
    <edge id=":1359095098_1" function="internal">
        <lane id=":1359095098_1_0" index="0" disallow="tram rail_urban rail rail_electric rail_fast ship" speed="8.29" length="10.81" shape="1515.68,1261.60 1513.30,1263.98 1511.81,1266.32 1511.22,1268.63 1511.51,1270.90"/>
    </edge>
    <edge id=":1359095098_2" function="internal">
        <lane id=":1359095098_2_0" index="0" allow="pedestrian delivery bicycle" speed="3.65" length="4.67" shape="1515.68,1261.60 1515.29,1262.98 1515.50,1263.85 1516.32,1264.20 1517.76,1264.04"/>
    </edge>
    <edge id=":1359095098_3" function="internal">
        <lane id=":1359095098_3_0" index="0" allow="pedestrian delivery bicycle" speed="6.80" length="7.03" shape="1514.55,1269.89 1514.45,1268.61 1514.95,1267.20 1516.05,1265.68 1517.76,1264.04"/>
    </edge>
    <edge id=":1359095098_4" function="internal">
        <lane id=":1359095098_4_0" index="0" disallow="tram rail_urban rail rail_electric rail_fast ship" speed="13.89" length="9.97" shape="1514.55,1269.89 1511.53,1260.39"/>
    </edge>
    <edge id=":1359095098_5" function="internal">
        <lane id=":1359095098_5_0" index="0" disallow="tram rail_urban rail rail_electric rail_fast ship" speed="3.65" length="2.34" shape="1514.55,1269.89 1513.42,1269.00 1512.53,1268.88"/>
    </edge>
    <edge id=":1359095098_9" function="internal">
        <lane id=":1359095098_9_0" index="0" disallow="tram rail_urban rail rail_electric rail_fast ship" speed="3.65" length="2.34" shape="1512.53,1268.88 1511.90,1269.51 1511.51,1270.90"/>
    </edge>
    <edge id=":1359095098_6" function="internal">
        <lane id=":1359095098_6_0" index="0" disallow="tram rail_urban rail rail_electric rail_fast ship" speed="13.89" length="10.03" shape="1508.48,1261.34 1511.51,1270.90"/>
    </edge>
    <edge id=":1359095098_7" function="internal">
        <lane id=":1359095098_7_0" index="0" allow="pedestrian delivery bicycle" speed="6.67" length="5.59" shape="1508.48,1261.34 1510.03,1264.65 1511.57,1265.81"/>
    </edge>
    <edge id=":1359095098_8" function="internal">