<?xml version="1.0" encoding="UTF-8"?>

<!-- generated on Thu Nov 14 18:21:33 2019 by Eclipse SUMO duarouter Version 1.3.1
<configuration xmlns:xsi="http://www.w3.org/2001/XMLSchema-instance" xsi:noNamespaceSchemaLocation="http://sumo.dlr.de/xsd/duarouterConfiguration.xsd">

    <input>
        <net-file value="/home/shuto/sumo/tools/2019-11-14-18-21-28/osm.net.xml"/>
        <route-files value="/home/shuto/sumo/tools/2019-11-14-18-21-28/osm.passenger.trips.xml"/>
    </input>

    <output>
        <output-file value="/home/shuto/sumo/tools/2019-11-14-18-21-28/osm.passenger.trips.xml.tmp"/>
        <write-trips value="true"/>
    </output>

    <time>
        <begin value="0"/>
        <end value="13600.0"/>
    </time>

    <report>
        <no-warnings value="true"/>
        <ignore-errors value="true"/>
        <no-step-log value="true"/>
    </report>

</configuration>
-->

<routes xmlns:xsi="http://www.w3.org/2001/XMLSchema-instance" xsi:noNamespaceSchemaLocation="http://sumo.dlr.de/xsd/routes_file.xsd">
    <vType id="veh_passenger" vClass="passenger"/>
    <trip id="veh0" type="veh_passenger" depart="0.00" departLane="best" from="121373618#0" to="-121367554#1"/>
    <trip id="veh1" type="veh_passenger" depart="0.00" departLane="best" from="-32787147#0" to="-256582576"/>
    <trip id="veh2" type="veh_passenger" depart="0.00" departLane="best" from="467169115#0" to="-121372043"/>
    <trip id="veh4" type="veh_passenger" depart="0.00" departLane="best" from="-256582572#0" to="121367580#1"/>
    <trip id="veh5" type="veh_passenger" depart="0.00" departLane="best" from="-121367554#1" to="-244029327#1"/>
    <trip id="veh6" type="veh_passenger" depart="0.00" departLane="best" departSpeed="max" from="244029325" to="121371723"/>
    <trip id="veh7" type="veh_passenger" depart="0.00" departLane="best" from="-256582572#1" to="121372950"/>
    <trip id="veh8" type="veh_passenger" depart="0.00" departLane="best" from="269773904#1" to="244029327#2"/>
    <trip id="veh9" type="veh_passenger" depart="0.00" departLane="best" from="-361084526#1" to="-121373316#0"/>
    <trip id="veh10" type="veh_passenger" depart="0.00" departLane="best" from="-121372134" to="-121372448"/>
    <trip id="veh11" type="veh_passenger" depart="0.00" departLane="best" from="351588704#3" to="121372950"/>
    <trip id="veh12" type="veh_passenger" depart="0.00" departLane="best" from="269773904#1" to="244029331#3"/>
    <trip id="veh13" type="veh_passenger" depart="0.00" departLane="best" from="121372134" to="546251307#4"/>
    <trip id="veh14" type="veh_passenger" depart="0.00" departLane="best" from="-546253150" to="121372043"/>
    <trip id="veh15" type="veh_passenger" depart="0.00" departLane="best" from="33777679#0" to="121373230#4"/>
    <trip id="veh16" type="veh_passenger" depart="134.23" departLane="best" from="351588704#7" to="121372786"/>
    <trip id="veh17" type="veh_passenger" depart="142.62" departLane="best" from="244029331#1" to="-121367869"/>
    <trip id="veh18" type="veh_passenger" depart="151.01" departLane="best" from="-256582580" to="-33777679#1"/>
    <trip id="veh19" type="veh_passenger" depart="159.40" departLane="best" from="-121372708" to="-32787147#1"/>
    <trip id="veh20" type="veh_passenger" depart="167.79" departLane="best" from="-121373424#0" to="244029331#3"/>
    <trip id="veh21" type="veh_passenger" depart="176.18" departLane="best" from="-121373340#1" to="-546253150"/>
    <trip id="veh22" type="veh_passenger" depart="184.56" departLane="best" from="550975635" to="121373297#2"/>
    <trip id="veh23" type="veh_passenger" depart="192.95" departLane="best" from="351588704#1" to="256582580"/>
    <trip id="veh24" type="veh_passenger" depart="201.34" departLane="best" from="-256582580" to="-121367561#1"/>
    <trip id="veh25" type="veh_passenger" depart="209.73" departLane="best" from="-351588704#4" to="-269773904#1"/>
    <trip id="veh26" type="veh_passenger" depart="218.12" departLane="best" departSpeed="max" from="244029325" to="-684687524"/>
    <trip id="veh27" type="veh_passenger" depart="226.51" departLane="best" from="467169125" to="121366888#1-AddedOffRampEdge"/>
    <trip id="veh28" type="veh_passenger" depart="234.90" departLane="best" from="121372786" to="-256582615"/>
    <trip id="veh29" type="veh_passenger" depart="243.29" departLane="best" from="121373230#4" to="351588704#7"/>
    <trip id="veh30" type="veh_passenger" depart="251.68" departLane="best" from="121366704" to="-256582572#1"/>
    <trip id="veh31" type="veh_passenger" depart="260.07" departLane="best" from="-121372134" to="-121367869"/>
    <trip id="veh32" type="veh_passenger" depart="268.46" departLane="best" from="269773891" to="121366646"/>
    <trip id="veh33" type="veh_passenger" depart="276.85" departLane="best" from="-121369449" to="-546253150"/>
    <trip id="veh34" type="veh_passenger" depart="285.24" departLane="best" from="572695738" to="121371095#1"/>
    <trip id="veh35" type="veh_passenger" depart="293.63" departLane="best" from="546251307#3" to="32787147#4"/>
    <trip id="veh37" type="veh_passenger" depart="310.40" departLane="best" from="-256582616" to="121373297#2"/>
    <trip id="veh38" type="veh_passenger" depart="318.79" departLane="best" from="-121372850" to="121366704"/>
    <trip id="veh39" type="veh_passenger" depart="327.18" departLane="best" departSpeed="max" from="121371547" to="-121373590#0"/>
    <trip id="veh40" type="veh_passenger" depart="335.57" departLane="best" from="467169124" to="33777679#3"/>
    <trip id="veh41" type="veh_passenger" depart="343.96" departLane="best" from="-33777679#3" to="121373297#2"/>
    <trip id="veh43" type="veh_passenger" depart="360.74" departLane="best" from="256582616" to="121371095#1"/>
    <trip id="veh44" type="veh_passenger" depart="369.13" departLane="best" from="-121367199" to="-351588704#7"/>
    <trip id="veh45" type="veh_passenger" depart="377.52" departLane="best" from="407183054#0" to="269773891-AddedOnRampEdge"/>
    <trip id="veh46" type="veh_passenger" depart="385.91" departLane="best" from="-121370816" to="256582568#1"/>
    <trip id="veh47" type="veh_passenger" depart="394.30" departLane="best" from="256582613#0" to="-121373230#2"/>
    <trip id="veh49" type="veh_passenger" depart="411.08" departLane="best" from="121372188" to="244029331#3"/>
    <trip id="veh50" type="veh_passenger" depart="419.47" departLane="best" from="572695738" to="121373340#1"/>
    <trip id="veh51" type="veh_passenger" depart="427.85" departLane="best" from="-361084526#1" to="121372950"/>
    <trip id="veh52" type="veh_passenger" depart="436.24" departLane="best" from="-121370855" to="121373283#2"/>
    <trip id="veh53" type="veh_passenger" depart="444.63" departLane="best" from="-256582580" to="351590057#0"/>
    <trip id="veh54" type="veh_passenger" depart="453.02" departLane="best" from="351588704#6" to="-121370855"/>
    <trip id="veh55" type="veh_passenger" depart="461.41" departLane="best" from="-256582608" to="121373590#0"/>
    <trip id="veh56" type="veh_passenger" depart="469.80" departLane="best" from="-256582568#0" to="-121373283#0"/>
    <trip id="veh57" type="veh_passenger" depart="478.19" departLane="best" departSpeed="max" from="546251307#0" to="121372593"/>
    <trip id="veh58" type="veh_passenger" depart="486.58" departLane="best" from="121368335" to="256582590"/>
    <trip id="veh59" type="veh_passenger" depart="494.97" departLane="best" from="269773904#1" to="-121373618#1"/>
    <trip id="veh60" type="veh_passenger" depart="503.36" departLane="best" from="-121372448" to="121366704"/>
    <trip id="veh61" type="veh_passenger" depart="511.75" departLane="best" from="256582568#1" to="121373590#1"/>
    <trip id="veh62" type="veh_passenger" depart="520.14" departLane="best" from="550975634#1" to="-121372593"/>
    <trip id="veh63" type="veh_passenger" depart="528.53" departLane="best" from="121366704" to="-361084526#1"/>
    <trip id="veh64" type="veh_passenger" depart="536.92" departLane="best" from="-121373618#1" to="121366888#1"/>
    <trip id="veh66" type="veh_passenger" depart="553.69" departLane="best" from="121367336#1" to="33777679#0"/>
    <trip id="veh67" type="veh_passenger" depart="562.08" departLane="best" from="121372448" to="-121367926"/>
    <trip id="veh68" type="veh_passenger" depart="570.47" departLane="best" from="121366704" to="-121368578"/>
    <trip id="veh69" type="veh_passenger" depart="578.86" departLane="best" from="-546253150" to="550975634#1"/>
    <trip id="veh70" type="veh_passenger" depart="587.25" departLane="best" from="-256582616" to="256582590"/>
    <trip id="veh71" type="veh_passenger" depart="595.64" departLane="best" from="121367561#0" to="121366646"/>
    <trip id="veh73" type="veh_passenger" depart="612.42" departLane="best" from="121372708" to="244029331#2"/>
    <trip id="veh74" type="veh_passenger" depart="620.81" departLane="best" from="-121373316#0" to="-33777679#3"/>
    <trip id="veh75" type="veh_passenger" depart="629.20" departLane="best" from="546251307#3" to="121372786"/>
    <trip id="veh76" type="veh_passenger" depart="637.59" departLane="best" from="121372355#1" to="244029331#3"/>
    <trip id="veh77" type="veh_passenger" depart="645.98" departLane="best" from="-121368578" to="121372850"/>
    <trip id="veh78" type="veh_passenger" depart="654.37" departLane="best" departSpeed="max" from="121371547" to="32787147#1"/>
    <trip id="veh79" type="veh_passenger" depart="662.75" departLane="best" from="-121373316#1" to="546251307#2"/>
    <trip id="veh80" type="veh_passenger" depart="671.14" departLane="best" from="-121371723" to="-121373618#0"/>
    <trip id="veh81" type="veh_passenger" depart="679.53" departLane="best" from="-256582590" to="-121373230#0"/>
    <trip id="veh83" type="veh_passenger" depart="696.31" departLane="best" from="121371547-AddedOffRampEdge" to="467169119"/>
    <trip id="veh84" type="veh_passenger" depart="704.70" departLane="best" departSpeed="max" from="244029325" to="-351588704#0"/>
    <trip id="veh85" type="veh_passenger" depart="713.09" departLane="best" from="-351588704#5" to="244029331#3"/>
    <trip id="veh86" type="veh_passenger" depart="721.48" departLane="best" from="-121371095#1" to="-256582568#0"/>
    <trip id="veh87" type="veh_passenger" depart="729.87" departLane="best" from="407183054#0" to="351588704#2"/>
    <trip id="veh88" type="veh_passenger" depart="738.26" departLane="best" from="-467169122" to="-121373316#1"/>
    <trip id="veh89" type="veh_passenger" depart="746.65" departLane="best" from="33777679#3" to="244029327#3"/>
    <trip id="veh90" type="veh_passenger" depart="755.04" departLane="best" from="121373340#0" to="550975635"/>
    <trip id="veh91" type="veh_passenger" depart="763.43" departLane="best" departSpeed="max" from="244029325" to="-121367322#1"/>
    <trip id="veh92" type="veh_passenger" depart="771.82" departLane="best" from="32787147#1" to="-351588704#0"/>
    <trip id="veh93" type="veh_passenger" depart="780.21" departLane="best" departSpeed="max" from="244029325" to="467169121"/>
    <trip id="veh94" type="veh_passenger" depart="788.59" departLane="best" from="-121373283#0" to="-121373170"/>
    <trip id="veh95" type="veh_passenger" depart="796.98" departLane="best" from="-269773904#2" to="121373170"/>
    <trip id="veh96" type="veh_passenger" depart="805.37" departLane="best" from="121370081" to="351590057#0"/>
    <trip id="veh97" type="veh_passenger" depart="813.76" departLane="best" from="351588704#2" to="-121372134"/>
    <trip id="veh99" type="veh_passenger" depart="830.54" departLane="best" from="121373590#1" to="-256582615"/>
    <trip id="veh100" type="veh_passenger" depart="838.93" departLane="best" from="121367199" to="-121367322#1"/>
    <trip id="veh101" type="veh_passenger" depart="847.32" departLane="best" from="33777679#3" to="121372849"/>
    <trip id="veh102" type="veh_passenger" depart="855.71" departLane="best" from="-121373297#1" to="-121373230#2"/>
    <trip id="veh103" type="veh_passenger" depart="864.10" departLane="best" from="-256582611" to="-121372708"/>
    <trip id="veh104" type="veh_passenger" depart="872.49" departLane="best" from="-121373316#0" to="467169115#1"/>
    <trip id="veh105" type="veh_passenger" depart="880.88" departLane="best" from="351588704#8" to="546251307#4"/>
    <trip id="veh106" type="veh_passenger" depart="889.27" departLane="best" from="269773904#2" to="351588704#2"/>
    <trip id="veh107" type="veh_passenger" depart="897.66" departLane="best" from="-121367554#1" to="244029331#3"/>
    <trip id="veh108" type="veh_passenger" depart="906.04" departLane="best" from="269773891-AddedOnRampEdge" to="33777679#0"/>
    <trip id="veh109" type="veh_passenger" depart="914.43" departLane="best" from="269773904#2" to="-256582616"/>
    <trip id="veh110" type="veh_passenger" depart="922.82" departLane="best" from="351590057#1" to="32787147#4"/>
    <trip id="veh111" type="veh_passenger" depart="931.21" departLane="best" from="-256582576" to="269773889"/>
    <trip id="veh112" type="veh_passenger" depart="939.60" departLane="best" from="121367561#1" to="-351588704#1"/>
    <trip id="veh113" type="veh_passenger" depart="947.99" departLane="best" from="269773891-AddedOnRampEdge" to="-256582580"/>
    <trip id="veh114" type="veh_passenger" depart="956.38" departLane="best" from="-121367554#0" to="-121373618#2"/>
    <trip id="veh115" type="veh_passenger" depart="964.77" departLane="best" from="-351588704#8" to="33777679#0"/>
    <trip id="veh116" type="veh_passenger" depart="973.16" departLane="best" from="546251307#3" to="-32787147#1"/>
    <trip id="veh117" type="veh_passenger" depart="981.55" departLane="best" from="121373618#0" to="121366646"/>
    <trip id="veh119" type="veh_passenger" depart="998.33" departLane="best" departSpeed="max" from="546251307#0" to="-121373170"/>
    <trip id="veh120" type="veh_passenger" depart="1006.72" departLane="best" from="256582568#1" to="-351588704#4"/>
    <trip id="veh121" type="veh_passenger" depart="1015.11" departLane="best" from="121373297#2" to="121368412"/>
    <trip id="veh122" type="veh_passenger" depart="1023.49" departLane="best" from="-550975634#0" to="121372786"/>
    <trip id="veh123" type="veh_passenger" depart="1031.88" departLane="best" from="-256582613#1" to="244029331#1"/>
    <trip id="veh124" type="veh_passenger" depart="1040.27" departLane="best" from="121372188" to="244029331#2"/>
    <trip id="veh125" type="veh_passenger" depart="1048.66" departLane="best" from="256582580" to="121373590#1"/>
    <trip id="veh126" type="veh_passenger" depart="1057.05" departLane="best" from="-467169119" to="-121370855"/>
    <trip id="veh127" type="veh_passenger" depart="1065.44" departLane="best" departSpeed="max" from="244029325" to="-351590057#0"/>
    <trip id="veh128" type="veh_passenger" depart="1073.83" departLane="best" from="-351588704#4" to="32787147#0"/>
    <trip id="veh130" type="veh_passenger" depart="1090.61" departLane="best" from="-351588704#3" to="121366646"/>
    <trip id="veh131" type="veh_passenger" depart="1099.00" departLane="best" from="121366704" to="-33777679#3"/>
    <trip id="veh132" type="veh_passenger" depart="1107.39" departLane="best" from="-121373230#2" to="121366646"/>
    <trip id="veh133" type="veh_passenger" depart="1115.78" departLane="best" departSpeed="max" from="546251307#0" to="121373618#1"/>
    <trip id="veh134" type="veh_passenger" depart="1124.17" departLane="best" from="-351588704#0" to="121371949"/>
    <trip id="veh135" type="veh_passenger" depart="1132.56" departLane="best" from="121367199" to="121372849"/>
    <trip id="veh136" type="veh_passenger" depart="1140.95" departLane="best" departSpeed="max" from="244029325" to="121367199"/>
    <trip id="veh137" type="veh_passenger" depart="1149.33" departLane="best" from="121368335" to="351588704#8"/>
    <trip id="veh138" type="veh_passenger" depart="1157.72" departLane="best" from="269773891-AddedOnRampEdge" to="-121373347"/>
    <trip id="veh139" type="veh_passenger" depart="1166.11" departLane="best" from="-121371949" to="121368578"/>
    <trip id="veh140" type="veh_passenger" depart="1174.50" departLane="best" from="32787147#1" to="244029331#3"/>
    <trip id="veh141" type="veh_passenger" depart="1182.89" departLane="best" departSpeed="max" from="244029325" to="-256582576"/>
    <trip id="veh142" type="veh_passenger" depart="1191.28" departLane="best" from="-256582610#1" to="121367336#0"/>
    <trip id="veh143" type="veh_passenger" depart="1199.67" departLane="best" from="351588704#3" to="-121370855"/>
    <trip id="veh145" type="veh_passenger" depart="1216.45" departLane="best" from="-121373618#2" to="244029327#1"/>
    <trip id="veh146" type="veh_passenger" depart="1224.84" departLane="best" departSpeed="max" from="244029325" to="-121367322#0"/>
    <trip id="veh147" type="veh_passenger" depart="1233.23" departLane="best" from="256582608" to="256582572#1"/>
    <trip id="veh148" type="veh_passenger" depart="1241.62" departLane="best" from="-121372786" to="121366646"/>
    <trip id="veh150" type="veh_passenger" depart="1258.40" departLane="best" from="-256582611" to="32787147#0"/>
    <trip id="veh151" type="veh_passenger" depart="1266.78" departLane="best" departSpeed="max" from="244029325" to="550975635"/>
    <trip id="veh153" type="veh_passenger" depart="1283.56" departLane="best" from="467169117" to="244029331#3"/>
    <trip id="veh154" type="veh_passenger" depart="1291.95" departLane="best" from="256582613#0" to="121370081"/>
    <trip id="veh155" type="veh_passenger" depart="1300.34" departLane="best" from="121373424#0" to="-32787147#0"/>
    <trip id="veh156" type="veh_passenger" depart="1308.73" departLane="best" from="-269773904#2" to="-351588704#6"/>
    <trip id="veh157" type="veh_passenger" depart="1317.12" departLane="best" from="121372188" to="-121373283#1"/>
    <trip id="veh158" type="veh_passenger" depart="1325.51" departLane="best" from="244029331#1" to="-121369449"/>
    <trip id="veh159" type="veh_passenger" depart="1333.90" departLane="best" from="121366888#0" to="121371723"/>
    <trip id="veh162" type="veh_passenger" depart="1359.07" departLane="best" from="121373230#4" to="244029327#1"/>
    <trip id="veh163" type="veh_passenger" depart="1367.46" departLane="best" from="351588704#5" to="256582572#0"/>
    <trip id="veh164" type="veh_passenger" depart="1375.85" departLane="best" from="-546253150" to="-121367322#0"/>
    <trip id="veh165" type="veh_passenger" depart="1384.23" departLane="best" from="-467169115#0" to="244029331#3"/>
    <trip id="veh167" type="veh_passenger" depart="1401.01" departLane="best" from="121367322#1" to="-121367561#0"/>
    <trip id="veh168" type="veh_passenger" depart="1409.40" departLane="best" from="121366888#0" to="-121373340#1"/>
    <trip id="veh169" type="veh_passenger" depart="1417.79" departLane="best" from="121367580#0" to="-121373230#2"/>
    <trip id="veh170" type="veh_passenger" depart="1426.18" departLane="best" from="121373350" to="-121367554#1"/>
    <trip id="veh171" type="veh_passenger" depart="1434.57" departLane="best" from="-121367554#1" to="121373316#1"/>
    <trip id="veh172" type="veh_passenger" depart="1442.96" departLane="best" from="-121373283#1" to="121366888#1-AddedOffRampEdge"/>
    <trip id="veh173" type="veh_passenger" depart="1451.35" departLane="best" from="-121367926" to="-546253150"/>
    <trip id="veh174" type="veh_passenger" depart="1459.74" departLane="best" from="256582608" to="269773891-AddedOnRampEdge"/>
    <trip id="veh175" type="veh_passenger" depart="1468.13" departLane="best" from="-256582613#0" to="-121371723"/>
    <trip id="veh177" type="veh_passenger" depart="1484.91" departLane="best" from="684687524" to="-407183054#2"/>
    <trip id="veh178" type="veh_passenger" depart="1493.30" departLane="best" departSpeed="max" from="244029325" to="256582583"/>
    <trip id="veh179" type="veh_passenger" depart="1501.68" departLane="best" departSpeed="max" from="244029325" to="244029331#3"/>
    <trip id="veh180" type="veh_passenger" depart="1510.07" departLane="best" from="-121367336#2" to="-121373297#2"/>
    <trip id="veh181" type="veh_passenger" depart="1518.46" departLane="best" from="121372849" to="-256582572#0"/>
    <trip id="veh182" type="veh_passenger" depart="1526.85" departLane="best" from="244029327#4" to="256582572#0"/>
    <trip id="veh183" type="veh_passenger" depart="1535.24" departLane="best" from="-121373347" to="121373170"/>
    <trip id="veh184" type="veh_passenger" depart="1543.63" departLane="best" from="256582590" to="-121372850"/>
    <trip id="veh185" type="veh_passenger" depart="1552.02" departLane="best" from="32787147#1" to="546251307#2"/>
    <trip id="veh186" type="veh_passenger" depart="1560.41" departLane="best" from="-351588704#3" to="121373618#1"/>
    <trip id="veh187" type="veh_passenger" depart="1568.80" departLane="best" from="546251307#1" to="121366646"/>
    <trip id="veh188" type="veh_passenger" depart="1577.19" departLane="best" from="-121372708" to="256582576"/>
    <trip id="veh189" type="veh_passenger" depart="1585.58" departLane="best" from="351588704#3" to="121372950"/>
    <trip id="veh190" type="veh_passenger" depart="1593.97" departLane="best" from="269773889" to="-407183054#1"/>
    <trip id="veh191" type="veh_passenger" depart="1602.36" departLane="best" from="121367199" to="-467169122"/>
    <trip id="veh192" type="veh_passenger" depart="1610.75" departLane="best" departSpeed="max" from="121371547" to="-407183054#0"/>
    <trip id="veh193" type="veh_passenger" depart="1619.14" departLane="best" from="351588704#3" to="269773889"/>
    <trip id="veh194" type="veh_passenger" depart="1627.52" departLane="best" from="-121372786" to="546251307#2"/>
    <trip id="veh195" type="veh_passenger" depart="1635.91" departLane="best" from="121373590#1" to="269773891"/>
    <trip id="veh196" type="veh_passenger" depart="1644.30" departLane="best" from="244029331#1" to="121366704"/>
    <trip id="veh197" type="veh_passenger" depart="1652.69" departLane="best" from="256582572#1" to="546251307#3"/>
    <trip id="veh198" type="veh_passenger" depart="1661.08" departLane="best" from="121372134" to="121367554#0"/>
    <trip id="veh199" type="veh_passenger" depart="1669.47" departLane="best" from="121367322#1" to="244029331#3"/>
    <trip id="veh200" type="veh_passenger" depart="1677.86" departLane="best" from="-269773904#1" to="32787147#1"/>
    <trip id="veh201" type="veh_passenger" depart="1686.25" departLane="best" from="407183054#0" to="-256582610#1"/>
    <trip id="veh202" type="veh_passenger" depart="1694.64" departLane="best" from="121367561#2" to="121373230#0"/>
    <trip id="veh203" type="veh_passenger" depart="1703.03" departLane="best" from="-256582568#0" to="256582611"/>
    <trip id="veh204" type="veh_passenger" depart="1711.42" departLane="best" from="-407183054#0" to="351588704#2"/>
    <trip id="veh205" type="veh_passenger" depart="1719.81" departLane="best" from="244029327#4" to="-32787147#0"/>
    <trip id="veh206" type="veh_passenger" depart="1728.20" departLane="best" from="-121367322#1" to="467169125"/>
    <trip id="veh207" type="veh_passenger" depart="1736.59" departLane="best" from="-121371949" to="244029331#2"/>
    <trip id="veh208" type="veh_passenger" depart="1744.97" departLane="best" from="121370081" to="256582568#0"/>
    <trip id="veh209" type="veh_passenger" depart="1753.36" departLane="best" from="121370816" to="256582610#1"/>
    <trip id="veh210" type="veh_passenger" depart="1761.75" departLane="best" from="121373230#2" to="121367336#0"/>
    <trip id="veh211" type="veh_passenger" depart="1770.14" departLane="best" from="121371949" to="121366646"/>
    <trip id="veh212" type="veh_passenger" depart="1778.53" departLane="best" from="244029331#1" to="-269773904#2"/>
    <trip id="veh213" type="veh_passenger" depart="1786.92" departLane="best" from="-256582613#0" to="-121373230#0"/>
    <trip id="veh214" type="veh_passenger" depart="1795.31" departLane="best" from="-121373618#2" to="-121373230#0"/>
    <trip id="veh215" type="veh_passenger" depart="1803.70" departLane="best" from="-121373618#0" to="-256582572#0"/>
    <trip id="veh216" type="veh_passenger" depart="1812.09" departLane="best" from="121369076" to="244029331#3"/>
    <trip id="veh217" type="veh_passenger" depart="1820.48" departLane="best" from="546251307#4" to="121370816"/>
    <trip id="veh218" type="veh_passenger" depart="1828.87" departLane="best" from="121372043" to="-32787147#0"/>
    <trip id="veh219" type="veh_passenger" depart="1837.26" departLane="best" from="546251307#4" to="121372134"/>
    <trip id="veh220" type="veh_passenger" depart="1845.65" departLane="best" from="244029327#3" to="-121373230#2"/>
    <trip id="veh221" type="veh_passenger" depart="1854.04" departLane="best" from="351590057#0" to="121367561#0"/>
    <trip id="veh222" type="veh_passenger" depart="1862.42" departLane="best" from="351590057#1" to="121372708"/>
    <trip id="veh223" type="veh_passenger" depart="1870.81" departLane="best" from="121367580#1" to="121366888#0"/>
    <trip id="veh224" type="veh_passenger" depart="1879.20" departLane="best" from="-121373618#0" to="-121367926"/>
    <trip id="veh225" type="veh_passenger" depart="1887.59" departLane="best" departSpeed="max" from="546251307#0" to="121367336#1"/>
    <trip id="veh226" type="veh_passenger" depart="1895.98" departLane="best" from="32787147#2" to="121366646"/>
    <trip id="veh227" type="veh_passenger" depart="1904.37" departLane="best" from="-121368412" to="-121373297#1"/>
    <trip id="veh228" type="veh_passenger" depart="1912.76" departLane="best" from="121372849" to="-351588704#1"/>
    <trip id="veh229" type="veh_passenger" depart="1921.15" departLane="best" from="572695738" to="-121373230#0"/>
    <trip id="veh230" type="veh_passenger" depart="1929.54" departLane="best" from="256582613#0" to="121373170"/>
    <trip id="veh231" type="veh_passenger" depart="1937.93" departLane="best" from="269773891" to="-256582576"/>
    <trip id="veh232" type="veh_passenger" depart="1946.32" departLane="best" from="121371547-AddedOffRampEdge" to="121366888#1"/>
    <trip id="veh233" type="veh_passenger" depart="1954.71" departLane="best" from="121367336#1" to="32787147#4"/>
    <trip id="veh234" type="veh_passenger" depart="1963.10" departLane="best" from="572695736" to="-351588704#1"/>
    <trip id="veh235" type="veh_passenger" depart="1971.49" departLane="best" from="121373347" to="121373230#0"/>
    <trip id="veh236" type="veh_passenger" depart="1979.88" departLane="best" departSpeed="max" from="244029325" to="-121373316#1"/>
    <trip id="veh237" type="veh_passenger" depart="1988.26" departLane="best" from="-121373424#1" to="-121371095#1"/>
    <trip id="veh238" type="veh_passenger" depart="1996.65" departLane="best" from="-121367199" to="121366888#1"/>
    <trip id="veh239" type="veh_passenger" depart="2005.04" departLane="best" from="121373283#2" to="-33777679#1"/>
    <trip id="veh240" type="veh_passenger" depart="2013.43" departLane="best" from="244029331#1" to="121366888#1-AddedOffRampEdge"/>
    <trip id="veh241" type="veh_passenger" depart="2021.82" departLane="best" from="269773889" to="121373283#1"/>
    <trip id="veh242" type="veh_passenger" depart="2030.21" departLane="best" departSpeed="max" from="244029325" to="467169117"/>
    <trip id="veh244" type="veh_passenger" depart="2046.99" departLane="best" from="33777679#0" to="-121370855"/>
    <trip id="veh245" type="veh_passenger" depart="2055.38" departLane="best" from="256582590" to="121372448"/>
    <trip id="veh246" type="veh_passenger" depart="2063.77" departLane="best" departSpeed="max" from="546251307#0" to="121367580#0"/>
    <trip id="veh247" type="veh_passenger" depart="2072.16" departLane="best" from="-121367580#0" to="121366704"/>
    <trip id="veh248" type="veh_passenger" depart="2080.55" departLane="best" from="-351588704#6" to="-256582613#0"/>
    <trip id="veh249" type="veh_passenger" depart="2088.94" departLane="best" from="-121372134" to="546251307#2"/>
    <trip id="veh250" type="veh_passenger" depart="2097.33" departLane="best" from="33777679#3" to="121372708"/>
    <trip id="veh251" type="veh_passenger" depart="2105.71" departLane="best" departSpeed="max" from="546251307#0" to="684687524"/>
    <trip id="veh252" type="veh_passenger" depart="2114.10" departLane="best" departSpeed="max" from="244029325" to="-269773904#1"/>
    <trip id="veh253" type="veh_passenger" depart="2122.49" departLane="best" from="-121367580#0" to="244029331#3"/>
    <trip id="veh254" type="veh_passenger" depart="2130.88" departLane="best" from="121367580#1" to="121373340#1"/>
    <trip id="veh255" type="veh_passenger" depart="2139.27" departLane="best" from="121373230#4" to="121373297#0"/>
    <trip id="veh256" type="veh_passenger" depart="2147.66" departLane="best" departSpeed="max" from="244029325" to="32787147#4"/>
    <trip id="veh257" type="veh_passenger" depart="2156.05" departLane="best" from="-33777679#1" to="467169124"/>
    <trip id="veh258" type="veh_passenger" depart="2164.44" departLane="best" from="32787147#0" to="121372043"/>
    <trip id="veh259" type="veh_passenger" depart="2172.83" departLane="best" from="121366888#0" to="121368578"/>
    <trip id="veh260" type="veh_passenger" depart="2181.22" departLane="best" from="550975635" to="121373350"/>
    <trip id="veh261" type="veh_passenger" depart="2189.61" departLane="best" from="121372355#1" to="121366646"/>
    <trip id="veh262" type="veh_passenger" depart="2198.00" departLane="best" from="-121373618#1" to="-467169119"/>
    <trip id="veh263" type="veh_passenger" depart="2206.39" departLane="best" from="256582610#1" to="-244029327#2"/>
    <trip id="veh264" type="veh_passenger" depart="2214.78" departLane="best" from="121373316#1" to="-256582608"/>
    <trip id="veh265" type="veh_passenger" depart="2223.16" departLane="best" from="572695736" to="361084526#1"/>