<?xml version="1.0" encoding="UTF-8"?>

<!-- generated on Sat Jul 18 22:57:14 2020 by Eclipse SUMO duarouter Version 1.6.0
<configuration xmlns:xsi="http://www.w3.org/2001/XMLSchema-instance" xsi:noNamespaceSchemaLocation="http://sumo.dlr.de/xsd/duarouterConfiguration.xsd">

    <input>
        <net-file value="/home/shuto/sumo/tools/2020-07-18-22-56-08/osm.net.xml"/>
        <route-files value="/home/shuto/sumo/tools/2020-07-18-22-56-08/osm.passenger.trips.xml"/>
    </input>

    <output>
        <output-file value="/home/shuto/sumo/tools/2020-07-18-22-56-08/osm.passenger.trips.xml.tmp"/>
        <write-trips value="true"/>
    </output>

    <time>
        <begin value="0"/>
        <end value="3600.0"/>
    </time>

    <report>
        <no-warnings value="true"/>
        <ignore-errors value="true"/>
        <no-step-log value="true"/>
    </report>

</configuration>
-->

<routes xmlns:xsi="http://www.w3.org/2001/XMLSchema-instance" xsi:noNamespaceSchemaLocation="http://sumo.dlr.de/xsd/routes_file.xsd">
    <vType id="veh_passenger" vClass="passenger"/>
    <trip id="veh0" type="veh_passenger" depart="0.00" departLane="best" from="397795463#1" to="198924587#1"/>
    <trip id="veh1" type="veh_passenger" depart="0.18" departLane="best" departSpeed="max" from="5670458#0" to="497251086#2"/>
    <trip id="veh2" type="veh_passenger" depart="0.35" departLane="best" departSpeed="max" from="619280617#0" to="167922071"/>
    <trip id="veh3" type="veh_passenger" depart="0.53" departLane="best" departSpeed="max" from="458166897#0" to="-46520921#0"/>
    <trip id="veh5" type="veh_passenger" depart="0.88" departLane="best" from="-542259076#1" to="198595461#5"/>
    <trip id="veh6" type="veh_passenger" depart="1.06" departLane="best" from="497251086#1" to="46211836#5"/>
    <trip id="veh7" type="veh_passenger" depart="1.23" departLane="best" from="32946656" to="464516471#1"/>
    <trip id="veh8" type="veh_passenger" depart="1.41" departLane="best" from="569345480" to="-167922077"/>
    <trip id="veh9" type="veh_passenger" depart="1.59" departLane="best" departSpeed="max" from="5673461#0" to="497251086#2"/>
    <trip id="veh10" type="veh_passenger" depart="1.76" departLane="best" departSpeed="max" from="422298615#0" to="169381965#7"/>
    <trip id="veh12" type="veh_passenger" depart="2.12" departLane="best" from="194920158#6" to="169267541#1"/>
    <trip id="veh13" type="veh_passenger" depart="2.29" departLane="best" departSpeed="max" from="618990022#0" to="46522000#1"/>
    <trip id="veh14" type="veh_passenger" depart="2.47" departLane="best" from="5673497" to="525729009"/>
    <trip id="veh15" type="veh_passenger" depart="2.65" departLane="best" from="464516471#6" to="803047267#2"/>
    <trip id="veh16" type="veh_passenger" depart="2.82" departLane="best" from="441405436" to="46334594#2"/>
    <trip id="veh17" type="veh_passenger" depart="3.00" departLane="best" from="569345543#1" to="46522160#4"/>
    <trip id="veh18" type="veh_passenger" depart="3.17" departLane="best" departSpeed="max" from="619280607#0" to="46443656#10"/>
    <trip id="veh19" type="veh_passenger" depart="3.35" departLane="best" departSpeed="max" from="194920158#0" to="198924587#1"/>
    <trip id="veh20" type="veh_passenger" depart="3.53" departLane="best" from="194926851#5" to="32946656"/>
    <trip id="veh21" type="veh_passenger" depart="3.70" departLane="best" from="497165753#3" to="388696207#0"/>
    <trip id="veh22" type="veh_passenger" depart="3.88" departLane="best" departSpeed="max" from="438384693#0" to="198595470"/>
    <trip id="veh23" type="veh_passenger" depart="4.06" departLane="best" from="375165666#1" to="682360554#0"/>
    <trip id="veh24" type="veh_passenger" depart="4.23" departLane="best" from="497251086#0" to="46522008#10"/>
    <trip id="veh25" type="veh_passenger" depart="4.41" departLane="best" departSpeed="max" from="198924630" to="525729009"/>
    <trip id="veh26" type="veh_passenger" depart="4.59" departLane="best" from="198595549#1" to="420494981#1"/>
    <trip id="veh27" type="veh_passenger" depart="4.76" departLane="best" departSpeed="max" from="727702632" to="496993762"/>
    <trip id="veh28" type="veh_passenger" depart="4.94" departLane="best" departSpeed="max" from="46482609" to="497251086#2"/>
    <trip id="veh29" type="veh_passenger" depart="5.11" departLane="best" departSpeed="max" from="618990022#0" to="542258061"/>
    <trip id="veh30" type="veh_passenger" depart="5.29" departLane="best" departSpeed="max" from="32947517" to="-497165754"/>
    <trip id="veh31" type="veh_passenger" depart="5.47" departLane="best" from="420496091#2" to="22916381"/>
    <trip id="veh33" type="veh_passenger" depart="5.82" departLane="best" from="511699175" to="420905130#2"/>
    <trip id="veh34" type="veh_passenger" depart="6.00" departLane="best" from="671208357" to="456409017#0"/>
    <trip id="veh35" type="veh_passenger" depart="6.17" departLane="best" from="375165666#0" to="226041006#2"/>
    <trip id="veh36" type="veh_passenger" depart="6.35" departLane="best" departSpeed="max" from="46538375#0" to="619280617#4"/>
    <trip id="veh37" type="veh_passenger" depart="6.53" departLane="best" departSpeed="max" from="448686048" to="198595548"/>
    <trip id="veh38" type="veh_passenger" depart="6.70" departLane="best" from="814278019#8" to="458180190#1"/>
    <trip id="veh39" type="veh_passenger" depart="6.88" departLane="best" from="194920158#11" to="-497258109#1"/>
    <trip id="veh40" type="veh_passenger" depart="7.05" departLane="best" departSpeed="max" from="194926854#0" to="46694751"/>
    <trip id="veh41" type="veh_passenger" depart="7.23" departLane="best" departSpeed="max" from="5673323#0" to="420907906#3"/>
    <trip id="veh42" type="veh_passenger" depart="7.41" departLane="best" departSpeed="max" from="167922077" to="420496091#2"/>
    <trip id="veh43" type="veh_passenger" depart="7.58" departLane="best" from="814278019#0" to="46211828#2"/>
    <trip id="veh44" type="veh_passenger" depart="7.76" departLane="best" from="68674962#37" to="569345547#2"/>
    <trip id="veh45" type="veh_passenger" depart="7.94" departLane="best" departSpeed="max" from="-36185649" to="511699175"/>
    <trip id="veh46" type="veh_passenger" depart="8.11" departLane="best" from="541350711#1" to="46211836#5"/>
    <trip id="veh47" type="veh_passenger" depart="8.29" departLane="best" from="375165666#1" to="497165753#0"/>
    <trip id="veh48" type="veh_passenger" depart="8.47" departLane="best" departSpeed="max" from="194926854#0" to="420907906#3"/>
    <trip id="veh49" type="veh_passenger" depart="8.64" departLane="best" departSpeed="max" from="458166897#0" to="68674962#36"/>
    <trip id="veh50" type="veh_passenger" depart="8.82" departLane="best" departSpeed="max" from="619280617#0" to="22916381"/>
    <trip id="veh51" type="veh_passenger" depart="8.99" departLane="best" from="458180189" to="194926851#1"/>
    <trip id="veh52" type="veh_passenger" depart="9.17" departLane="best" from="670988060#2" to="569345547#2"/>
    <trip id="veh53" type="veh_passenger" depart="9.35" departLane="best" departSpeed="max" from="420496091#0" to="496989355#3"/>
    <trip id="veh54" type="veh_passenger" depart="9.52" departLane="best" departSpeed="max" from="496989355#0" to="169381965#7"/>
    <trip id="veh55" type="veh_passenger" depart="9.70" departLane="best" departSpeed="max" from="5671574#0" to="46211836#5"/>
    <trip id="veh56" type="veh_passenger" depart="9.88" departLane="best" from="5672951#4" to="46211836#0"/>
    <trip id="veh58" type="veh_passenger" depart="10.23" departLane="best" departSpeed="max" from="-46694751" to="671208358#6"/>
    <trip id="veh59" type="veh_passenger" depart="10.41" departLane="best" departSpeed="max" from="619280617#0" to="569345537#5"/>
    <trip id="veh60" type="veh_passenger" depart="10.58" departLane="best" departSpeed="max" from="420496091#0" to="-511699183#2"/>
    <trip id="veh61" type="veh_passenger" depart="10.76" departLane="best" departSpeed="max" from="619280617#0" to="68668522#2"/>
    <trip id="veh62" type="veh_passenger" depart="10.93" departLane="best" departSpeed="max" from="194920158#0" to="458180187#2"/>
    <trip id="veh63" type="veh_passenger" depart="11.11" departLane="best" from="169381960#0" to="528748997#6"/>
    <trip id="veh64" type="veh_passenger" depart="11.29" departLane="best" departSpeed="max" from="5671577" to="169267541#1"/>
    <trip id="veh65" type="veh_passenger" depart="11.46" departLane="best" departSpeed="max" from="458166897#0" to="46334594#2"/>
    <trip id="veh66" type="veh_passenger" depart="11.64" departLane="best" from="375165666#0" to="569345547#2"/>
    <trip id="veh67" type="veh_passenger" depart="11.82" departLane="best" departSpeed="max" from="458166897#0" to="198595470"/>
    <trip id="veh68" type="veh_passenger" depart="11.99" departLane="best" departSpeed="max" from="46482602#0" to="525729009"/>
    <trip id="veh69" type="veh_passenger" depart="12.17" departLane="best" from="812949648#5" to="497165756#4"/>
    <trip id="veh70" type="veh_passenger" depart="12.35" departLane="best" departSpeed="max" from="458166897#0" to="458180194"/>
    <trip id="veh71" type="veh_passenger" depart="12.52" departLane="best" departSpeed="max" from="194926854#0" to="198924587#1"/>
    <trip id="veh72" type="veh_passenger" depart="12.70" departLane="best" departSpeed="max" from="422298615#0" to="464516471#0"/>
    <trip id="veh73" type="veh_passenger" depart="12.87" departLane="best" departSpeed="max" from="32947517" to="198595548"/>
    <trip id="veh74" type="veh_passenger" depart="13.05" departLane="best" departSpeed="max" from="32947517" to="671208357"/>
    <trip id="veh75" type="veh_passenger" depart="13.23" departLane="best" from="618990022#7" to="-5671577"/>
    <trip id="veh76" type="veh_passenger" depart="13.40" departLane="best" departSpeed="max" from="34769004" to="497251086#2"/>
    <trip id="veh78" type="veh_passenger" depart="13.76" departLane="best" departSpeed="max" from="686125787#0" to="46419222#1"/>
    <trip id="veh79" type="veh_passenger" depart="13.93" departLane="best" departSpeed="max" from="458166897#0" to="542259076#0"/>
    <trip id="veh80" type="veh_passenger" depart="14.11" departLane="best" from="569345468#0" to="195743344"/>
    <trip id="veh81" type="veh_passenger" depart="14.29" departLane="best" from="194926851#2" to="420907906#3"/>
    <trip id="veh82" type="veh_passenger" depart="14.46" departLane="best" departSpeed="max" from="458166897#0" to="458166897#13"/>
    <trip id="veh83" type="veh_passenger" depart="14.64" departLane="best" departSpeed="max" from="5670197#0" to="497251086#2"/>
    <trip id="veh84" type="veh_passenger" depart="14.81" departLane="best" departSpeed="max" from="727702632" to="169267541#1"/>
    <trip id="veh86" type="veh_passenger" depart="15.17" departLane="best" departSpeed="max" from="619280607#0" to="226041007#2"/>
    <trip id="veh87" type="veh_passenger" depart="15.34" departLane="best" from="226041032#4" to="452322756#4"/>
    <trip id="veh88" type="veh_passenger" depart="15.52" departLane="best" departSpeed="max" from="458166897#0" to="32946656-AddedOnRampEdge"/>
    <trip id="veh89" type="veh_passenger" depart="15.70" departLane="best" departSpeed="max" from="34769004" to="671208358#6"/>
    <trip id="veh90" type="veh_passenger" depart="15.87" departLane="best" departSpeed="max" from="458166897#0" to="569345547#2"/>
    <trip id="veh91" type="veh_passenger" depart="16.05" departLane="best" departSpeed="max" from="46482609" to="-511699183#2"/>
    <trip id="veh92" type="veh_passenger" depart="16.23" departLane="best" from="818182930#0" to="569345540#3"/>
    <trip id="veh93" type="veh_passenger" depart="16.40" departLane="best" departSpeed="max" from="618990022#0" to="194920158#5"/>
    <trip id="veh94" type="veh_passenger" depart="16.58" departLane="best" from="458166897#14" to="198595470"/>
    <trip id="veh95" type="veh_passenger" depart="16.75" departLane="best" departSpeed="max" from="448686048" to="-511699183#2"/>
    <trip id="veh96" type="veh_passenger" depart="16.93" departLane="best" departSpeed="max" from="448686048" to="812949647#3"/>
    <trip id="veh97" type="veh_passenger" depart="17.11" departLane="best" from="375165666#0" to="542258337#4"/>
    <trip id="veh98" type="veh_passenger" depart="17.28" departLane="best" departSpeed="max" from="458166897#0" to="420907906#3"/>
    <trip id="veh99" type="veh_passenger" depart="17.46" departLane="best" departSpeed="max" from="68674962#0" to="812949648#7"/>
    <trip id="veh100" type="veh_passenger" depart="17.64" departLane="best" departSpeed="max" from="46482609" to="499172074#2"/>
    <trip id="veh102" type="veh_passenger" depart="17.99" departLane="best" from="68674962#34" to="46443656#10"/>
    <trip id="veh103" type="veh_passenger" depart="18.17" departLane="best" departSpeed="max" from="46482602#0" to="525729009"/>
    <trip id="veh104" type="veh_passenger" depart="18.34" departLane="best" departSpeed="max" from="167922077" to="46443656#10"/>
    <trip id="veh105" type="veh_passenger" depart="18.52" departLane="best" from="458180190#2" to="569345547#2"/>
    <trip id="veh106" type="veh_passenger" depart="18.69" departLane="best" departSpeed="max" from="198595507" to="710571391"/>
    <trip id="veh107" type="veh_passenger" depart="18.87" departLane="best" departSpeed="max" from="194920158#0" to="194926855"/>
    <trip id="veh108" type="veh_passenger" depart="19.05" departLane="best" from="483360105#2" to="497251086#2"/>
    <trip id="veh109" type="veh_passenger" depart="19.22" departLane="best" departSpeed="max" from="34769004" to="169267541#1"/>
    <trip id="veh110" type="veh_passenger" depart="19.40" departLane="best" from="483360105#1" to="46522160#4"/>
    <trip id="veh111" type="veh_passenger" depart="19.58" departLane="best" from="456409017#1" to="46443656#10"/>
    <trip id="veh112" type="veh_passenger" depart="19.75" departLane="best" departSpeed="max" from="46443649" to="671208358#6"/>
    <trip id="veh114" type="veh_passenger" depart="20.11" departLane="best" departSpeed="max" from="34769004" to="420905130#2"/>
    <trip id="veh116" type="veh_passenger" depart="20.46" departLane="best" from="420496091#3" to="525729009"/>
    <trip id="veh117" type="veh_passenger" depart="20.63" departLane="best" from="169381965#5" to="456409017#0"/>
    <trip id="veh118" type="veh_passenger" depart="20.81" departLane="best" from="818182930#0" to="814278019#0"/>
    <trip id="veh119" type="veh_passenger" depart="20.99" departLane="best" from="375165666#0" to="671208358#6"/>
    <trip id="veh120" type="veh_passenger" depart="21.16" departLane="best" departSpeed="max" from="619280617#0" to="569345547#2"/>
    <trip id="veh121" type="veh_passenger" depart="21.34" departLane="best" departSpeed="max" from="438384693#0" to="169381965#7"/>
    <trip id="veh122" type="veh_passenger" depart="21.52" departLane="best" from="569345547#0" to="497251086#2"/>
    <trip id="veh123" type="veh_passenger" depart="21.69" departLane="best" departSpeed="max" from="496989355#0" to="812949647#3"/>
    <trip id="veh126" type="veh_passenger" depart="22.22" departLane="best" departSpeed="max" from="511699183#0" to="682360554#2"/>
    <trip id="veh127" type="veh_passenger" depart="22.40" departLane="best" departSpeed="max" from="196116976#0" to="169267541#1"/>
    <trip id="veh128" type="veh_passenger" depart="22.57" departLane="best" departSpeed="max" from="194926854#0" to="46334594#2"/>
    <trip id="veh129" type="veh_passenger" depart="22.75" departLane="best" from="384178816#0" to="46522008#0"/>
    <trip id="veh130" type="veh_passenger" depart="22.93" departLane="best" departSpeed="max" from="5670029#0" to="198595470"/>
    <trip id="veh131" type="veh_passenger" depart="23.10" departLane="best" from="497165753#1" to="22916381"/>
    <trip id="veh132" type="veh_passenger" depart="23.28" departLane="best" from="458166897#15" to="671208357"/>
    <trip id="veh133" type="veh_passenger" depart="23.46" departLane="best" departSpeed="max" from="618990022#0" to="169267541#0"/>
    <trip id="veh134" type="veh_passenger" depart="23.63" departLane="best" departSpeed="max" from="458166897#0" to="324118554#0"/>
    <trip id="veh135" type="veh_passenger" depart="23.81" departLane="best" from="-32946655" to="542257008#1"/>
    <trip id="veh136" type="veh_passenger" depart="23.99" departLane="best" from="497165753#5" to="22916381"/>
    <trip id="veh137" type="veh_passenger" depart="24.16" departLane="best" departSpeed="max" from="5670458#0" to="46334594#2"/>
    <trip id="veh138" type="veh_passenger" depart="24.34" departLane="best" departSpeed="max" from="458166897#0" to="-167922077"/>
    <trip id="veh139" type="veh_passenger" depart="24.51" departLane="best" departSpeed="max" from="194920158#0" to="569345547#2"/>
    <trip id="veh140" type="veh_passenger" depart="24.69" departLane="best" from="619280617#2" to="46211836#5"/>
    <trip id="veh141" type="veh_passenger" depart="24.87" departLane="best" from="569345547#0" to="46443656#10"/>
    <trip id="veh142" type="veh_passenger" depart="25.04" departLane="best" departSpeed="max" from="198595507" to="169267541#1"/>
    <trip id="veh143" type="veh_passenger" depart="25.22" departLane="best" departSpeed="max" from="420496091#0" to="658583340#4"/>
    <trip id="veh144" type="veh_passenger" depart="25.40" departLane="best" departSpeed="max" from="5673323#0" to="569345547#2"/>
    <trip id="veh145" type="veh_passenger" depart="25.57" departLane="best" departSpeed="max" from="619280617#0" to="198595470"/>
    <trip id="veh146" type="veh_passenger" depart="25.75" departLane="best" departSpeed="max" from="34769004" to="169267541#1"/>
    <trip id="veh147" type="veh_passenger" depart="25.93" departLane="best" departSpeed="max" from="5673063#0" to="569345547#2"/>
    <trip id="veh148" type="veh_passenger" depart="26.10" departLane="best" departSpeed="max" from="448686048" to="46522160#4"/>
    <trip id="veh149" type="veh_passenger" depart="26.28" departLane="best" departSpeed="max" from="198595507" to="671208358#6"/>
    <trip id="veh150" type="veh_passenger" depart="26.45" departLane="best" departSpeed="max" from="619280607#0" to="803047267#2"/>
    <trip id="veh151" type="veh_passenger" depart="26.63" departLane="best" from="569345499#0" to="569345547#2"/>
    <trip id="veh152" type="veh_passenger" depart="26.81" departLane="best" from="-511699183#3" to="525729009"/>
    <trip id="veh153" type="veh_passenger" depart="26.98" departLane="best" from="421851200#1" to="671208358#6"/>
    <trip id="veh154" type="veh_passenger" depart="27.16" departLane="best" departSpeed="max" from="5673461#0" to="569345547#2"/>
    <trip id="veh155" type="veh_passenger" depart="27.34" departLane="best" from="569345499#0" to="22916381"/>
    <trip id="veh156" type="veh_passenger" depart="27.51" departLane="best" departSpeed="max" from="619280617#0" to="569345547#2"/>
    <trip id="veh157" type="veh_passenger" depart="27.69" departLane="best" from="32947295#0" to="569345480"/>
    <trip id="veh159" type="veh_passenger" depart="28.04" departLane="best" departSpeed="max" from="5673323#0" to="198924587#1"/>
    <trip id="veh160" type="veh_passenger" depart="28.22" departLane="best" from="-497165754" to="198595460#0"/>
    <trip id="veh161" type="veh_passenger" depart="28.39" departLane="best" from="420907908#1" to="569345547#2"/>
    <trip id="veh162" type="veh_passenger" depart="28.57" departLane="best" departSpeed="max" from="68674962#0" to="32947291"/>
    <trip id="veh163" type="veh_passenger" depart="28.75" departLane="best" from="497165756#4" to="420907906#1"/>
    <trip id="veh164" type="veh_passenger" depart="28.92" departLane="best" from="717625447#2" to="46211836#5"/>
    <trip id="veh165" type="veh_passenger" depart="29.10" departLane="best" departSpeed="max" from="686125787#0" to="169267541#1"/>
    <trip id="veh166" type="veh_passenger" depart="29.28" departLane="best" from="68674962#36" to="194926851#1"/>
    <trip id="veh167" type="veh_passenger" depart="29.45" departLane="best" departSpeed="max" from="68674962#0" to="22916381"/>
    <trip id="veh168" type="veh_passenger" depart="29.63" departLane="best" departSpeed="max" from="194926854#0" to="420907906#3"/>
    <trip id="veh170" type="veh_passenger" depart="29.98" departLane="best" departSpeed="max" from="496989355#0" to="458180191#0"/>
    <trip id="veh171" type="veh_passenger" depart="30.16" departLane="best" departSpeed="max" from="448686048" to="46419222#1-AddedOnRampEdge"/>
    <trip id="veh172" type="veh_passenger" depart="30.33" departLane="best" departSpeed="max" from="34769004" to="497258109#0"/>
    <trip id="veh173" type="veh_passenger" depart="30.51" departLane="best" from="-167922072#4" to="671208358#6"/>
    <trip id="veh174" type="veh_passenger" depart="30.69" departLane="best" from="464516471#9" to="499172074#9"/>
    <trip id="veh175" type="veh_passenger" depart="30.86" departLane="best" departSpeed="max" from="5670458#0" to="497251086#2"/>
    <trip id="veh176" type="veh_passenger" depart="31.04" departLane="best" departSpeed="max" from="438384693#0" to="-5671577"/>
    <trip id="veh178" type="veh_passenger" depart="31.39" departLane="best" from="420496091#1" to="569345547#2"/>
    <trip id="veh180" type="veh_passenger" depart="31.75" departLane="best" departSpeed="max" from="420496091#0" to="420907906#3"/>
    <trip id="veh182" type="veh_passenger" depart="32.10" departLane="best" from="194926854#4" to="420907906#3"/>
    <trip id="veh183" type="veh_passenger" depart="32.27" departLane="best" from="619280617#1" to="46522160#4"/>
    <trip id="veh184" type="veh_passenger" depart="32.45" departLane="best" departSpeed="max" from="420496091#0" to="46211836#5"/>
    <trip id="veh185" type="veh_passenger" depart="32.63" departLane="best" from="-167922072#1" to="32947509"/>
    <trip id="veh186" type="veh_passenger" depart="32.80" departLane="best" departSpeed="max" from="458166897#0" to="46443656#10"/>
    <trip id="veh187" type="veh_passenger" depart="32.98" departLane="best" from="505778913" to="458166897#12"/>
    <trip id="veh188" type="veh_passenger" depart="33.16" departLane="best" departSpeed="max" from="458166897#0" to="198595470"/>
    <trip id="veh189" type="veh_passenger" depart="33.33" departLane="best" departSpeed="max" from="458166897#0" to="670988060#0"/>
    <trip id="veh190" type="veh_passenger" depart="33.51" departLane="best" departSpeed="max" from="5673323#0" to="194926847"/>
    <trip id="veh191" type="veh_passenger" depart="33.69" departLane="best" departSpeed="max" from="194920158#0" to="458180193#0"/>
    <trip id="veh193" type="veh_passenger" depart="34.04" departLane="best" from="569345515#4" to="525729009"/>
    <trip id="veh194" type="veh_passenger" depart="34.21" departLane="best" from="511699183#3" to="198924587#1"/>
    <trip id="veh196" type="veh_passenger" depart="34.57" departLane="best" departSpeed="max" from="34769004" to="458166897#9"/>
    <trip id="veh197" type="veh_passenger" depart="34.74" departLane="best" departSpeed="max" from="618990022#0" to="-5671577"/>
    <trip id="veh198" type="veh_passenger" depart="34.92" departLane="best" from="455125048#1" to="46694751"/>
    <trip id="veh199" type="veh_passenger" depart="35.10" departLane="best" from="324118554#0" to="497251086#2"/>
    <trip id="veh200" type="veh_passenger" depart="35.27" departLane="best" from="458180182" to="226041006#2"/>
    <trip id="veh201" type="veh_passenger" depart="35.45" departLane="best" from="511699176" to="-167922077"/>
    <trip id="veh202" type="veh_passenger" depart="35.63" departLane="best" departSpeed="max" from="5671115#0" to="542257008#1"/>
    <trip id="veh203" type="veh_passenger" depart="35.80" departLane="best" departSpeed="max" from="194926854#0" to="420907906#3"/>
    <trip id="veh204" type="veh_passenger" depart="35.98" departLane="best" departSpeed="max" from="198924630" to="710571388#0"/>
    <trip id="veh206" type="veh_passenger" depart="36.33" departLane="best" departSpeed="max" from="34769004" to="569345547#2"/>
    <trip id="veh208" type="veh_passenger" depart="36.68" departLane="best" departSpeed="max" from="511699183#0" to="812949647#3"/>
    <trip id="veh209" type="veh_passenger" depart="36.86" departLane="best" from="483360105#2" to="68668557"/>
    <trip id="veh210" type="veh_passenger" depart="37.04" departLane="best" departSpeed="max" from="619280617#0" to="46522008#10"/>
    <trip id="veh211" type="veh_passenger" depart="37.21" departLane="best" departSpeed="max" from="5670029#0" to="458180187#2"/>
    <trip id="veh212" type="veh_passenger" depart="37.39" departLane="best" from="569345544#0" to="46211836#5"/>
    <trip id="veh213" type="veh_passenger" depart="37.57" departLane="best" departSpeed="max" from="619280617#0" to="525729009"/>
    <trip id="veh214" type="veh_passenger" depart="37.74" departLane="best" departSpeed="max" from="458166897#0" to="22916381"/>
    <trip id="veh216" type="veh_passenger" depart="38.09" departLane="best" departSpeed="max" from="5671577" to="46211828#0"/>
    <trip id="veh217" type="veh_passenger" depart="38.27" departLane="best" departSpeed="max" from="496989355#0" to="22916381"/>
    <trip id="veh218" type="veh_passenger" depart="38.45" departLane="best" departSpeed="max" from="194920158#0" to="32947509"/>
    <trip id="veh220" type="veh_passenger" depart="38.80" departLane="best" departSpeed="max" from="46482602#0" to="169267541#1"/>
    <trip id="veh221" type="veh_passenger" depart="38.98" departLane="best" departSpeed="max" from="32947517" to="497251086#2"/>
    <trip id="veh222" type="veh_passenger" depart="39.15" departLane="best" departSpeed="max" from="5669879#0" to="-511699183#2"/>
    <trip id="veh223" type="veh_passenger" depart="39.33" departLane="best" departSpeed="max" from="448686048" to="46211836#5"/>
    <trip id="veh224" type="veh_passenger" depart="39.51" departLane="best" from="455678353" to="198595470"/>
    <trip id="veh225" type="veh_passenger" depart="39.68" departLane="best" departSpeed="max" from="458166897#0" to="671208357"/>
    <trip id="veh226" type="veh_passenger" depart="39.86" departLane="best" from="46538371#2" to="497251086#2"/>
    <trip id="veh227" type="veh_passenger" depart="40.03" departLane="best" departSpeed="max" from="618990022#0" to="542257008#1"/>
    <trip id="veh228" type="veh_passenger" depart="40.21" departLane="best" departSpeed="max" from="448686048" to="-167922077"/>
    <trip id="veh229" type="veh_passenger" depart="40.39" departLane="best" departSpeed="max" from="422298615#0" to="525729009"/>
    <trip id="veh230" type="veh_passenger" depart="40.56" departLane="best" departSpeed="max" from="618990022#0" to="68674962#36"/>
    <trip id="veh231" type="veh_passenger" depart="40.74" departLane="best" from="456409017#1" to="525729009"/>
    <trip id="veh232" type="veh_passenger" depart="40.92" departLane="best" departSpeed="max" from="46482602#0" to="46521998"/>
    <trip id="veh233" type="veh_passenger" depart="41.09" departLane="best" from="32946656-AddedOnRampEdge" to="198595548"/>
    <trip id="veh234" type="veh_passenger" depart="41.27" departLane="best" departSpeed="max" from="458166897#0" to="-46520921#0"/>
    <trip id="veh235" type="veh_passenger" depart="41.45" departLane="best" departSpeed="max" from="422298615#0" to="497251086#2"/>
    <trip id="veh236" type="veh_passenger" depart="41.62" departLane="best" departSpeed="max" from="448686048" to="194920158#10"/>
    <trip id="veh237" type="veh_passenger" depart="41.80" departLane="best" departSpeed="max" from="458166897#0" to="169267541#1"/>
    <trip id="veh238" type="veh_passenger" depart="41.97" departLane="best" departSpeed="max" from="496989355#0" to="-46520921#0"/>
    <trip id="veh239" type="veh_passenger" depart="42.15" departLane="best" departSpeed="max" from="448686048" to="46419222#1"/>
    <trip id="veh240" type="veh_passenger" depart="42.33" departLane="best" from="-542259076#3" to="497165753#2"/>
    <trip id="veh241" type="veh_passenger" depart="42.50" departLane="best" departSpeed="max" from="196116976#0" to="458166897#10"/>
    <trip id="veh242" type="veh_passenger" depart="42.68" departLane="best" departSpeed="max" from="167922077" to="420357249#1"/>
    <trip id="veh243" type="veh_passenger" depart="42.86" departLane="best" departSpeed="max" from="32939514" to="34769017"/>
    <trip id="veh244" type="veh_passenger" depart="43.03" departLane="best" departSpeed="max" from="5671574#0" to="420357249#1"/>
    <trip id="veh245" type="veh_passenger" depart="43.21" departLane="best" departSpeed="max" from="5671115#0" to="569345537#5"/>
    <trip id="veh246" type="veh_passenger" depart="43.39" departLane="best" departSpeed="max" from="34769004" to="127693103#0"/>
    <trip id="veh247" type="veh_passenger" depart="43.56" departLane="best" from="818182930#0" to="36185649"/>
    <trip id="veh248" type="veh_passenger" depart="43.74" departLane="best" from="497251086#1" to="542258061"/>
    <trip id="veh249" type="veh_passenger" depart="43.91" departLane="best" from="499172074#0" to="525729009"/>
    <trip id="veh250" type="veh_passenger" depart="44.09" departLane="best" departSpeed="max" from="68674962#0" to="198595461#5"/>
    <trip id="veh251" type="veh_passenger" depart="44.27" departLane="best" departSpeed="max" from="-46694751" to="169381965#7"/>
    <trip id="veh252" type="veh_passenger" depart="44.44" departLane="best" departSpeed="max" from="194926854#0" to="497251086#2"/>
    <trip id="veh253" type="veh_passenger" depart="44.62" departLane="best" departSpeed="max" from="46521465" to="198595470"/>
    <trip id="veh254" type="veh_passenger" depart="44.80" departLane="best" departSpeed="max" from="5669664#0" to="542257008#1"/>
    <trip id="veh255" type="veh_passenger" depart="44.97" departLane="best" departSpeed="max" from="198924630" to="46522008#10"/>