<configuration>
   <input>
       <net-file value="highway.net.xml"/>
       <route-files value="highway.trips.xml"/>
   </input>
</configuration>