<?xml version="1.0" encoding="UTF-8"?>

<!-- generated on 2019年12月23日 19時39分03秒 by Eclipse SUMO netedit Version 1.4.0
<configuration xmlns:xsi="http://www.w3.org/2001/XMLSchema-instance" xsi:noNamespaceSchemaLocation="http://sumo.dlr.de/xsd/netconvertConfiguration.xsd">

    <input>
        <sumo-net-file value="/home/shuto/sumo/tools/straight_autobahn/straight_autobahn.net.xml"/>
    </input>

    <output>
        <output-file value="/home/shuto/sumo/tools/straight_autobahn/straight_autobahn.net.xml"/>
    </output>

    <processing>
        <geometry.min-radius.fix.railways value="false"/>
        <geometry.max-grade.fix value="false"/>
        <offset.disable-normalization value="true"/>
        <lefthand value="false"/>
    </processing>

    <junctions>
        <no-internal-links value="true"/>
        <no-turnarounds value="true"/>
        <junctions.corner-detail value="5"/>
        <junctions.limit-turn-speed value="5.5"/>
        <rectangular-lane-cut value="false"/>
    </junctions>

    <pedestrian>
        <walkingareas value="false"/>
    </pedestrian>

    <report>
        <aggregate-warnings value="5"/>
    </report>

</configuration>
-->

<net version="1.3" junctionCornerDetail="5" limitTurnSpeed="5.50" xmlns:xsi="http://www.w3.org/2001/XMLSchema-instance" xsi:noNamespaceSchemaLocation="http://sumo.dlr.de/xsd/net_file.xsd">

    <location netOffset="0.00,0.00" convBoundary="-993.51,-759.24,1968.38,626.83" origBoundary="-10000000000.00,-10000000000.00,10000000000.00,10000000000.00" projParameter="!"/>

    <edge id="next" from="next" to="finish" priority="-1">
        <lane id="next_0" index="0" speed="27.78" length="3031.32" shape="-769.09,-674.91 1973.15,616.70"/>
        <lane id="next_1" index="1" speed="27.78" length="3031.32" shape="-770.45,-672.01 1971.79,619.59"/>
        <lane id="next_2" index="2" speed="27.78" length="3031.32" shape="-771.81,-669.12 1970.43,622.49"/>
        <lane id="next_3" index="3" speed="27.78" length="3031.32" shape="-773.18,-666.22 1969.06,625.38"/>
    </edge>
    <edge id="start" from="start" to="next" priority="-1">
        <lane id="start_0" index="0" speed="27.78" length="238.97" shape="-989.09,-769.53 -769.68,-675.17"/>
        <lane id="start_1" index="1" speed="27.78" length="238.97" shape="-990.35,-766.59 -770.94,-672.23"/>
        <lane id="start_2" index="2" speed="27.78" length="238.97" shape="-991.61,-763.65 -772.21,-669.29"/>
        <lane id="start_3" index="3" speed="27.78" length="238.97" shape="-992.88,-760.71 -773.47,-666.35"/>
    </edge>

    <junction id="finish" type="dead_end" x="1968.38" y="626.83" incLanes="next_0 next_1 next_2 next_3" intLanes="" shape="1973.83,615.25 1968.38,626.83"/>
    <junction id="next" type="priority" x="-773.98" y="-664.83" incLanes="start_0 start_1 start_2 start_3" intLanes="" shape="-773.86,-664.77 -768.40,-676.35 -769.05,-676.64 -774.10,-664.88">
        <request index="0" response="0000" foes="0000"/>
        <request index="1" response="0000" foes="0000"/>
        <request index="2" response="0000" foes="0000"/>
        <request index="3" response="0000" foes="0000"/>
    </junction>
    <junction id="start" type="dead_end" x="-993.51" y="-759.24" incLanes="" intLanes="" shape="-993.51,-759.24 -988.45,-771.00"/>

    <connection from="start" to="next" fromLane="0" toLane="0" dir="s" state="M"/>
    <connection from="start" to="next" fromLane="1" toLane="1" dir="s" state="M"/>
    <connection from="start" to="next" fromLane="2" toLane="2" dir="s" state="M"/>
    <connection from="start" to="next" fromLane="3" toLane="3" dir="s" state="M"/>

</net>
