<configuration>
   <input>
       <net-file value="straight_autobahn.net.xml"/>
       <route-files value="trips.trips.xml"/>
   </input>
</configuration>