<?xml version="1.0" encoding="UTF-8"?>

<!-- generated on Sun Feb 14 23:22:25 2021 by Eclipse SUMO polyconvert Version 1.6.0
<configuration xmlns:xsi="http://www.w3.org/2001/XMLSchema-instance" xsi:noNamespaceSchemaLocation="http://sumo.dlr.de/xsd/polyconvertConfiguration.xsd">

    <input>
        <net-file value="osm.net.xml"/>
        <osm-files value="osm_bbox.osm.xml"/>
        <osm.keep-full-type value="true"/>
        <type-file value="/usr/share/sumo/data/typemap/osmPolyconvert.typ.xml"/>
    </input>

    <output>
        <output-file value="osm.poly.xml"/>
    </output>

    <processing>
        <poi-layer-offset value="5"/>
    </processing>

    <report>
        <verbose value="true"/>
    </report>

</configuration>
-->

<additional xmlns:xsi="http://www.w3.org/2001/XMLSchema-instance" xsi:noNamespaceSchemaLocation="http://sumo.dlr.de/xsd/additional_file.xsd">
    <location netOffset="-390748.78,-5819654.74" convBoundary="-1186.32,-751.71,3228.54,2467.61" origBoundary="13.372213,52.509571,13.436728,52.538857" projParameter="+proj=utm +zone=33 +ellps=WGS84 +datum=WGS84 +units=m +no_defs"/>

    <poly id="104786904" type="natural.grassland" color="140,196,107" fill="1" layer="-4.00" shape="259.837685,312.538625 265.174925,250.694815 245.778166,249.034473 240.434382,310.878459 259.837685,312.538625"/>
    <poly id="104786906" type="building.yes" color="255,230,230" fill="1" layer="-1.00" shape="274.029372,417.078626 337.353616,428.667064 330.348968,438.759827 326.661052,443.548840 322.187803,449.345684 320.281254,451.825043 306.182716,450.903478 294.803173,450.155143 295.403936,442.986702 316.911131,444.655908 318.241583,437.638156 278.382808,430.913569 276.865980,431.993319 275.016913,441.326047 276.047751,442.504895 275.846135,443.510870 274.999699,443.908044 274.778480,448.608833 271.291341,448.385982 267.987384,448.159057 268.388632,446.058130 272.247303,426.676927 273.856148,416.615119 274.029372,417.078626"/>
    <poly id="104786907" type="building.residential" color="255,230,230" fill="1" layer="-1.00" shape="302.802308,398.723263 301.527129,411.581803 261.837191,404.219311 264.935836,372.035970 278.563896,373.157062 279.759904,359.487959 293.067631,360.549455 291.930341,372.893058 284.112541,372.065502 282.827831,385.714322 290.723314,386.373232 290.262180,391.580101 289.797519,397.543728 302.802308,398.723263"/>
    <poly id="104786910" type="building.yes" color="255,230,230" fill="1" layer="-1.00" shape="380.515663,425.515247 393.187105,408.953849 377.091510,396.370191 377.797433,395.453159 377.016929,394.847362 380.091272,390.850964 380.802447,391.391537 381.745942,390.168779 385.702986,393.207684 386.461706,392.222715 403.243162,405.124989 410.502771,395.805606 420.556549,398.898222 400.386364,425.017928 392.898261,434.743002 380.515663,425.515247"/>
    <poly id="104786915" type="building.yes" color="255,230,230" fill="1" layer="-1.00" shape="378.028238,418.660280 364.500559,416.245878 363.383646,422.491060 376.886149,424.995039 378.028238,418.660280"/>
    <poly id="104786916" type="building.yes" color="255,230,230" fill="1" layer="-1.00" shape="406.321704,350.920628 401.481520,368.008969 439.562191,379.013699 444.363125,365.042009 441.697959,363.932818 439.143661,362.008849 436.441447,359.843359 432.741664,358.300928 418.430964,354.256881 406.321704,350.920628"/>
    <poly id="104991245" type="building.yes" color="255,230,230" fill="1" layer="-1.00" shape="285.454732,734.095900 298.257457,729.894106 300.121383,735.572248 300.559381,735.428972 305.990748,751.966227 306.819748,751.702976 310.962213,764.307467 310.093005,764.593867 315.532086,781.175471 301.799472,785.676104 299.010887,777.180983 298.418097,777.383342 295.505760,768.512636 296.098551,768.310277 292.501482,757.340554 291.955683,757.519613 289.079472,748.748256 289.692618,748.545443 288.265676,744.204026 286.904243,740.061451 287.355561,739.906749 285.454732,734.095900"/>
    <poly id="11548677" type="natural.water" color="181,209,209" fill="0" layer="-4.00" shape="1410.504310,-343.185706 1380.624228,-360.242884 1247.922724,-430.082071 1239.603630,-437.587795 1230.004785,-444.631314 1227.300386,-446.585768 1210.908145,-458.442336 1169.097948,-486.896832 1116.018394,-513.455373 1104.360384,-518.116416 1081.315728,-527.444412 1074.303587,-529.548476 1069.681809,-530.703834 1054.111643,-534.510567 988.741273,-542.380179 922.416679,-538.432597 918.150288,-537.637218 915.618969,-536.668781 912.563720,-534.831933 909.615527,-532.452199 907.513501,-530.491769 905.920170,-528.553716 904.662689,-526.778876 886.227387,-491.296997 878.580947,-476.650870 764.632581,-280.753536 761.594699,-275.689968 759.098813,-270.983357 705.844792,-164.781343 691.250052,-123.385937 653.289676,-27.470230 645.247216,-11.156885 567.096850,140.220709 562.375184,177.369323 534.358416,283.102631 514.077532,338.222873 514.865941,339.796620 514.941725,341.987079 501.786732,363.087821 500.003972,362.893727 490.922460,379.130301 436.889363,418.498284 354.404645,517.798642 343.430655,531.006372 331.156812,545.889930 319.035478,560.302768 260.315139,631.680066 262.978071,633.913097 253.417460,645.643000 250.721599,643.455218 248.449060,647.478372 243.058603,649.868398"/>
    <poly id="120456814" type="amenity.university" color="237,199,199" fill="1" layer="-1.00" shape="69.661454,430.610395 69.794643,431.408617 106.873456,434.599236 113.491418,435.197308 140.722372,437.539389 145.160940,383.271076 163.431070,384.655650 172.039951,385.342990 174.966497,385.689534 184.682503,386.407877 184.098819,392.507701 182.751246,404.844895 182.313059,410.162544 182.294590,410.552423 184.451986,410.804824 183.737365,416.206523 183.702602,416.474361 182.519053,428.251520 171.105107,427.181533 169.921208,440.160491 208.675888,443.325677 209.805586,443.456312 215.190293,384.393262 215.561813,379.433187 216.591046,369.562303 219.171967,334.564028 318.283167,343.374979 330.972541,257.109494 338.564408,171.146588 263.177199,164.577932 187.640232,158.002636 183.044436,209.514710 173.634535,350.266497 166.498606,349.579728 148.610729,349.210367 114.867289,346.156512 93.029190,344.284124 92.246453,353.326101 84.724532,352.681437 79.858521,409.062480 79.787676,409.842996 78.311952,409.720104 58.391830,408.005424 57.749616,415.430766 65.747606,416.120411 65.865624,414.715694 70.150315,415.087535 70.026008,416.514647 70.842139,416.585475 69.671393,430.142811 69.661454,430.610395"/>
    <poly id="121673258" type="landuse.construction" color="194,194,130" fill="1" layer="-3.00" shape="739.807599,15.668016 679.917710,-25.167346 674.973340,-27.416802 671.448540,-21.975162 683.147461,-12.987441 682.106223,-11.573411 682.623737,-11.195415 677.680954,-4.798759 679.743238,-3.331117 678.419739,-1.788426 676.256740,-0.449679 673.770166,0.072799 671.879462,-0.085586 670.093503,-0.724780 668.528870,-1.791729 666.170190,1.131481 644.399712,32.059283 645.871202,32.905737 646.744865,33.732064 647.466170,34.728683 648.178829,36.560065 648.301680,38.426779 648.058636,39.711843 647.562572,40.913496 646.474847,42.373075 645.011751,41.292755 639.381171,49.729930 656.017248,61.568053 633.409807,98.512257 612.278732,142.934972 612.517658,152.788739 631.340000,154.251854 628.442079,157.954850 641.652771,160.744240 654.239221,164.771542 667.264314,169.601468 690.890893,184.155647 711.689478,195.467705 721.299442,184.650145 741.013610,157.128761 673.979241,114.849431 739.807599,15.668016"/>
    <poly id="121717655" type="building.yes" color="255,230,230" fill="1" layer="-1.00" shape="481.179914,366.516506 489.007833,354.046636 455.603148,333.223224 451.310823,345.647989 471.685393,358.348273 470.642702,359.996066 481.179914,366.516506"/>
    <poly id="121717767" type="leisure.park" color="207,245,201" fill="1" layer="-2.00" shape="579.379378,453.301932 604.212811,472.124144 605.882651,469.983980 605.132903,469.232806 604.646762,468.431275 604.392773,467.691359 604.294335,466.925737 604.333066,466.223838 604.494165,465.530351 604.850287,464.754645 605.364426,464.064455 605.997109,463.516293 606.727983,463.110613 607.482911,462.871313 608.275216,462.786971 609.562666,462.992091 610.268871,463.310254 610.868497,463.719802 613.007706,461.012848 615.543256,463.015213 616.398472,462.094905 617.242463,461.586569 618.193155,461.298418 619.060830,461.245789 619.919377,461.393660 620.830349,461.762920 621.617102,462.346360 622.189219,463.045838 622.594191,463.860299 622.794887,464.645909 622.826465,465.457524 622.701506,466.250357 622.412486,466.991191 621.747483,467.918406 624.980100,470.439440 623.012845,472.942278 623.958352,474.256620 624.169904,474.919585 624.260075,475.618625 624.222327,476.365013 624.048150,477.081044 623.750373,477.733051 623.349349,478.320582 622.764650,478.889932 622.075225,479.328073 621.267503,479.635307 620.414880,479.754368 619.701278,479.714558 618.998283,479.540982 618.099650,479.115811 616.264884,481.471054 634.528617,495.142398 592.413314,550.646489 603.692176,559.109181 669.239789,473.029917 598.309657,426.943435 579.379378,453.301932"/>
    <poly id="127177463" type="landuse.grass" color="194,194,130" fill="1" layer="-3.00" shape="333.962598,364.090886 327.732029,416.317937 338.185054,418.132954 363.361561,422.413658 364.460207,415.957456 377.091510,396.370191 377.797433,395.453159 377.016929,394.847362 380.091272,390.850964 380.802447,391.391537 381.745942,390.168779 385.702986,393.207684 386.461706,392.222715 403.243162,405.124989 410.502771,395.805606 420.556549,398.898222 410.181604,391.128010 333.962598,364.090886"/>
    <poly id="127177463#1" type="leisure.garden" color="207,245,201" fill="1" layer="-2.00" shape="333.962598,364.090886 327.732029,416.317937 338.185054,418.132954 363.361561,422.413658 364.460207,415.957456 377.091510,396.370191 377.797433,395.453159 377.016929,394.847362 380.091272,390.850964 380.802447,391.391537 381.745942,390.168779 385.702986,393.207684 386.461706,392.222715 403.243162,405.124989 410.502771,395.805606 420.556549,398.898222 410.181604,391.128010 333.962598,364.090886"/>
    <poly id="127178490" type="building.yes" color="255,230,230" fill="1" layer="-1.00" shape="366.787651,468.739740 343.625525,449.113725 338.907359,445.424122 334.251731,441.799898 330.348968,438.759827 326.661052,443.548840 352.903112,464.007631 349.438201,468.446712 336.286301,458.201304 335.250074,459.526283 322.187803,449.345684 320.281254,451.825043 319.575350,452.742083 356.513473,482.899980 366.787651,468.739740"/>
    <poly id="127178491" type="building.yes" color="255,230,230" fill="1" layer="-1.00" shape="359.133546,429.473564 343.625525,449.113725 366.787651,468.739740 387.697033,441.078963 376.925017,432.850287 374.246826,432.375699 359.133546,429.473564"/>
    <poly id="127182169" type="building.yes" color="255,230,230" fill="1" layer="-1.00" shape="352.923987,448.461854 361.231164,454.820198 372.029558,440.726210 360.585743,437.697984 352.923987,448.461854"/>
    <poly id="128565935" type="building.residential" color="255,230,230" fill="1" layer="-1.00" shape="647.040520,707.035239 647.970320,706.725300 647.127120,704.206902 646.122694,704.518496 645.371387,702.164975 653.019857,699.669683 654.622138,702.749884 663.519015,719.822664 667.879146,732.489364 643.994971,740.485648 643.427824,738.784572 639.715699,727.794918 639.647982,727.495974 653.400159,722.940232 651.917043,718.499818 650.980708,718.821029 647.040520,707.035239"/>
    <poly id="128565938" type="building.residential" color="255,230,230" fill="1" layer="-1.00" shape="590.208245,727.502242 602.381774,722.769959 603.346122,725.241152 606.319214,732.897762 609.205460,740.311493 613.665942,738.832712 612.931893,736.645727 619.339172,734.500616 623.046528,745.579383 623.627990,747.313522 612.248363,751.115676 600.862215,754.929128 590.208245,727.502242"/>
    <poly id="128565939" type="building.residential" color="255,230,230" fill="1" layer="-1.00" shape="643.994971,740.485648 633.814742,743.893938 623.627990,747.313522 623.046528,745.579383 619.339172,734.500616 634.485017,729.435416 626.864334,711.455296 626.229336,709.755728 596.506365,708.200725 595.938090,706.755615 593.663257,700.897319 593.001356,699.209479 628.486973,701.070615 629.174764,702.702247 630.916319,706.858732 631.618170,708.512308 632.270312,710.066838 628.954467,709.906705 636.576131,727.931317 638.813165,727.191788 639.046045,727.898791 639.715699,727.794918 643.427824,738.784572 643.994971,740.485648"/>
    <poly id="128565940" type="building.commercial" color="255,230,230" fill="1" layer="-1.00" shape="688.271128,707.189277 668.903128,706.428028 666.054070,700.994157 666.074427,700.381687 683.322835,701.056384 683.287555,701.301974 683.347253,701.545458 683.494159,701.742498 683.707427,701.871302 683.945858,701.910526 684.114969,701.884522 688.271128,707.189277"/>
    <poly id="130777430" type="building.residential" color="255,230,230" fill="1" layer="-1.00" shape="303.803462,392.769958 303.354442,392.724309 302.802308,398.723263 324.629204,400.719227 328.029225,363.755480 313.976549,362.465651 313.473089,367.907139 308.650666,367.469152 308.016791,374.371262 312.750761,374.800088 311.401028,389.496343 304.163908,388.833882 303.803462,392.769958"/>
    <poly id="131765142" type="building.yes" color="255,230,230" fill="1" layer="-1.00" shape="394.039173,329.405701 413.147894,331.562633 416.012055,329.406990 419.066284,329.695205 420.334348,331.469704 423.062777,331.453587 440.528169,342.749543 441.755535,345.136970 449.580649,350.571454 451.310823,345.647989 455.603148,333.223224 427.635307,315.450600 427.087387,316.453134 426.127779,316.340924 426.108997,315.495641 425.314041,314.545201 424.552155,313.861089 423.212109,313.735079 422.297792,314.133734 421.343150,314.855988 420.805364,316.314530 418.553698,316.097501 410.064398,315.295792 400.948183,314.385626 399.890519,323.300112 396.067142,322.917727 394.039173,329.405701"/>
    <poly id="131765147" type="building.yes" color="255,230,230" fill="1" layer="-1.00" shape="436.441447,359.843359 439.143661,362.008849 441.697959,363.932818 444.363125,365.042009 449.580649,350.571454 441.755535,345.136970 436.441447,359.843359"/>
    <poly id="131783066" type="building.yes" color="255,230,230" fill="1" layer="-1.00" shape="359.133546,429.473564 343.625525,449.113725 338.907359,445.424122 345.459356,436.342925 339.235752,434.856687 334.251731,441.799898 330.348968,438.759827 337.353616,428.667064 339.603579,425.757225 359.133546,429.473564"/>
    <poly id="131835792" type="building.yes" color="255,230,230" fill="1" layer="-1.00" shape="310.534689,492.446313 290.410932,476.981465 298.876788,466.366516 305.279081,471.309424 319.002785,481.931499 310.534689,492.446313"/>
    <poly id="131835793" type="building.yes" color="255,230,230" fill="1" layer="-1.00" shape="280.013204,468.800309 267.312992,458.422627 271.291341,448.385982 274.778480,448.608833 288.267991,458.156656 280.013204,468.800309"/>
    <poly id="131835794" type="building.university" color="255,230,230" fill="1" layer="-1.00" shape="290.410932,476.981465 280.013204,468.800309 288.267991,458.156656 295.471659,463.727125 298.876788,466.366516 290.410932,476.981465"/>
    <poly id="131835795" type="building.yes" color="255,230,230" fill="1" layer="-1.00" shape="356.513473,482.899980 345.268898,496.458676 333.436145,487.229942 339.040929,479.816691 313.967592,460.021891 319.575350,452.742083 356.513473,482.899980"/>
    <poly id="131835796" type="building.yes" color="255,230,230" fill="1" layer="-1.00" shape="345.268898,496.458676 334.237709,510.758207 310.534689,492.446313 319.002785,481.931499 330.557522,490.865936 333.436145,487.229942 345.268898,496.458676"/>
    <poly id="131835797" type="building.yes" color="255,230,230" fill="1" layer="-1.00" shape="305.279081,471.309424 298.876788,466.366516 295.471659,463.727125 306.182716,450.903478 320.281254,451.825043 319.575350,452.742083 313.967592,460.021891 305.279081,471.309424"/>
    <poly id="131835798" type="building.theatre" color="255,230,230" fill="1" layer="-1.00" shape="347.209291,301.659581 344.419394,328.828543 343.103123,341.676852 342.690836,345.725353 361.808641,347.681584 364.080898,347.909257 367.838035,311.115654 365.572547,310.887829 366.320233,303.604860 362.163398,303.185405 356.455194,302.600148 351.325422,302.079929 347.209291,301.659581"/>
    <poly id="131835798#1" type="historic.yes" color="128,255,128" fill="1" layer="-1.00" shape="347.209291,301.659581 344.419394,328.828543 343.103123,341.676852 342.690836,345.725353 361.808641,347.681584 364.080898,347.909257 367.838035,311.115654 365.572547,310.887829 366.320233,303.604860 362.163398,303.185405 356.455194,302.600148 351.325422,302.079929 347.209291,301.659581"/>
    <poly id="133885752" type="building.roof" color="255,230,230" fill="1" layer="-1.00" shape="529.533793,491.107139 528.200690,490.068482 530.517097,487.090492 546.838356,466.142088 548.523888,467.462246 560.673986,451.858716 558.788245,450.387210 574.467327,430.465773 579.544458,424.032624 585.443020,416.379472 581.470337,413.852628 578.695933,412.100387 575.996898,410.379858 567.473459,404.971804 562.344164,401.713964 552.663853,395.563803 554.864618,392.877712 557.178254,390.077841 599.577475,418.002085 657.613313,456.240195 679.450575,470.667041 677.003313,473.870410 602.878347,570.766729 591.407695,561.918828 586.366521,558.035866 588.372947,555.465376 590.570939,552.656956 601.254626,560.910296 602.172984,561.613217 636.071078,517.252150 669.910466,472.970537 653.234432,462.023504 614.837539,437.014494 595.008781,424.101231 590.415136,421.120797 552.263423,471.107000 527.385314,502.872227 541.089312,513.550980 542.912493,514.957101 540.981195,517.548197 538.852292,520.410744 521.153324,506.504658 487.262128,479.616182 491.213148,474.443111 503.017742,483.639459 509.876710,488.984208 511.610477,490.336665 509.452218,493.099728 520.980417,502.079701 523.244267,499.180768 529.533793,491.107139"/>
    <poly id="133887411" type="building.roof" color="255,230,230" fill="1" layer="-1.00" shape="586.366521,558.035866 573.544243,574.232895 571.002858,576.859774 567.914159,578.986930 564.998273,580.642893 561.088669,582.176252 556.134399,583.432355 550.509088,583.813148 545.462648,583.057207 540.568357,585.791970 544.926282,596.199713 554.853143,591.762002 554.088592,590.343508 558.623468,589.764368 563.311168,588.425163 567.623385,586.682572 571.470935,584.494065 575.373744,581.736826 578.555565,578.606122 591.407695,561.918828 586.366521,558.035866"/>
    <poly id="145662520" type="waterway.canal" color="181,209,209" fill="0" layer="-4.00" shape="517.043038,357.140763 496.763862,383.273594 449.898443,422.014913 396.135369,487.238007 349.401606,543.113999 339.645236,555.215284 285.273327,620.397613 265.113102,645.059999 220.363621,700.904309"/>
    <poly id="147699484" type="building.yes" color="255,230,230" fill="1" layer="-1.00" shape="273.856148,416.615119 272.247303,426.676927 259.701103,425.665313 259.377228,431.547918 253.212612,430.883922 251.794237,447.061706 239.730279,446.061667 241.147283,428.604229 242.794094,428.790127 244.206717,410.220023 251.882091,410.750237 261.692025,411.422129 261.051031,414.340710 273.856148,416.615119"/>
    <poly id="147699490" type="building.yes" color="255,230,230" fill="1" layer="-1.00" shape="267.312992,458.422627 251.794237,447.061706 253.212612,430.883922 259.377228,431.547918 258.504391,438.689037 268.388632,446.058130 267.987384,448.159057 271.291341,448.385982 267.312992,458.422627"/>
    <poly id="150634669" type="building.viaduct" color="255,230,230" fill="1" layer="-1.00" shape="158.265080,451.681308 184.628195,454.988811 204.027051,458.607303 228.938201,464.996348 254.513298,474.686779 278.886721,486.507204 300.412759,500.015727 316.765863,511.669808 314.500654,514.502105 312.268627,517.300283 309.488342,520.778316 307.216357,523.610768 305.407160,525.887672 289.636482,515.088627 269.011905,502.739623 245.795110,491.038164 221.600050,481.439461 198.765420,475.326919 181.662258,471.768599 156.600328,469.277832 158.265080,451.681308"/>
    <poly id="159534658" type="waterway.river" color="181,209,209" fill="0" layer="-4.00" shape="1208.759862,-142.149764 1156.781526,-127.594306 1103.479546,-89.062532 1065.513370,-50.234614 1028.765222,-9.152136 980.188638,59.710601 959.219172,93.167459 865.159388,252.948214 847.445782,284.074664 817.159106,333.817823 789.654954,384.734736 758.195695,434.192706 720.476528,483.244371 707.429164,503.095871 691.164295,528.449007 668.400072,552.410692 630.892851,580.026623 563.459816,608.885568 523.848752,624.241891 476.074501,643.663400 401.453564,673.062642 311.961692,688.717372 293.888857,690.655063 220.363621,700.904309 132.897805,713.624045 98.477415,711.453431 -16.415345,700.795993 -37.404253,698.282142 -95.347631,688.036205 -119.669972,677.896780 -191.367925,612.265099 -260.050792,552.242106 -296.868722,519.726976 -323.950019,495.551447 -362.418135,468.804469 -421.346625,438.977307 -516.998152,395.251802 -612.313915,366.876821 -650.427734,365.717822 -696.846450,364.422846 -723.903385,368.669095 -744.818560,371.942973 -765.659757,378.509087 -785.995529,386.721968 -809.703942,399.205881 -828.459849,410.354545 -846.985265,423.901694 -864.478959,438.649771 -884.305740,461.328820 -893.178646,478.787489 -894.576901,482.713645 -900.136134,497.505042 -902.913966,509.808037 -904.447730,522.194329 -905.086863,531.199921 -908.626640,565.152392 -912.426065,590.275282 -918.544992,618.799808 -929.325653,642.254824 -937.107497,659.310705 -943.585734,668.236266 -947.757321,674.394759 -961.583666,690.384909 -980.454665,710.528026 -1002.465084,727.793048 -1031.885546,751.167269 -1064.369110,770.526792 -1098.066382,787.521420 -1125.265645,796.179785 -1154.057441,802.236928 -1186.317528,807.092766"/>
    <poly id="15968753" type="building.yes" color="255,230,230" fill="1" layer="-1.00" shape="583.966040,320.748094 556.516310,366.980460 630.933973,411.108460 635.217159,404.069834 635.937563,402.885457 658.741726,365.391582 636.046983,351.807273 621.875487,343.319631 607.567507,334.801673 583.966040,320.748094"/>
    <poly id="15968753#1" type="tourism.museum" color="207,245,201" fill="1" layer="-2.00" shape="583.966040,320.748094 556.516310,366.980460 630.933973,411.108460 635.217159,404.069834 635.937563,402.885457 658.741726,365.391582 636.046983,351.807273 621.875487,343.319631 607.567507,334.801673 583.966040,320.748094"/>
    <poly id="15968754" type="building.yes" color="255,230,230" fill="1" layer="-1.00" shape="577.277565,357.050136 576.507320,356.599867 584.140956,343.622598 585.062439,344.158534 585.598792,343.245297 597.785288,350.374793 597.320850,351.164030 598.098125,351.625273 595.900405,355.368399 591.546999,352.816609 588.198126,358.521485 592.283226,360.912310 590.216272,364.429985 589.288009,363.894199 588.732044,364.841254 576.800055,357.861921 577.277565,357.050136"/>
    <poly id="15968754#1" type="tourism.museum" color="207,245,201" fill="1" layer="-2.00" shape="577.277565,357.050136 576.507320,356.599867 584.140956,343.622598 585.062439,344.158534 585.598792,343.245297 597.785288,350.374793 597.320850,351.164030 598.098125,351.625273 595.900405,355.368399 591.546999,352.816609 588.198126,358.521485 592.283226,360.912310 590.216272,364.429985 589.288009,363.894199 588.732044,364.841254 576.800055,357.861921 577.277565,357.050136"/>
    <poly id="15968756" type="building.yes" color="255,230,230" fill="1" layer="-1.00" shape="616.944106,382.342289 617.585807,381.282059 616.739706,380.777828 619.057826,376.954148 622.669577,379.121817 626.232129,373.256440 622.668114,371.098837 624.744093,367.681125 625.645212,368.217519 626.274088,367.190958 638.093848,374.317557 637.674925,375.016759 638.548657,375.542636 630.153700,389.393529 629.314386,388.889146 628.908295,389.554682 616.944106,382.342289"/>
    <poly id="15968756#1" type="tourism.museum" color="207,245,201" fill="1" layer="-2.00" shape="616.944106,382.342289 617.585807,381.282059 616.739706,380.777828 619.057826,376.954148 622.669577,379.121817 626.232129,373.256440 622.668114,371.098837 624.744093,367.681125 625.645212,368.217519 626.274088,367.190958 638.093848,374.317557 637.674925,375.016759 638.548657,375.542636 630.153700,389.393529 629.314386,388.889146 628.908295,389.554682 616.944106,382.342289"/>
    <poly id="15971186" type="building.museum" color="255,230,230" fill="1" layer="-1.00" shape="439.429969,168.960370 439.248947,171.201044 439.704771,171.246556 439.571965,172.907523 439.454571,174.345595 438.903760,174.302194 438.462182,179.786797 438.992639,179.830650 438.594222,184.813551 437.866757,184.762947 437.421116,190.370044 438.060129,190.411486 437.837432,193.220596 437.164248,193.168786 436.776934,198.040164 437.287034,198.084470 436.985545,201.930200 436.332716,201.877938 436.008290,205.913347 434.607399,205.799811 434.224650,210.570940 433.425295,211.256357 433.087704,216.226780 433.709841,217.036403 433.317231,221.974665 434.561819,222.080545 434.248495,226.004432 434.744776,226.037916 434.479666,229.382095 433.874335,229.328778 433.448925,234.623854 433.924850,234.657791 433.686005,237.656429 433.108061,237.613632 432.656884,243.276492 433.112454,243.310881 432.703448,248.427550 432.139075,248.384451 431.708615,253.757532 432.116691,253.792976 431.905100,256.490564 431.408823,256.457080 431.296738,257.828269 431.772661,257.862205 431.703486,258.720569 432.879724,258.805712 432.842362,259.262775 440.968453,259.905682 440.920981,260.518756 444.688146,260.813405 448.129148,261.093047 448.161950,260.736234 468.127005,262.317984 468.084337,262.841930 485.043838,264.190059 485.059252,263.967164 504.487045,265.505354 504.438330,266.062817 511.619339,266.637803 511.651158,266.236503 520.266961,266.924306 520.292243,266.534278 521.203623,266.614194 521.272319,265.733586 521.816335,265.777147 521.906492,264.640128 521.267242,264.587554 521.527351,261.321386 522.261835,261.382974 522.691652,255.976535 522.106679,255.922756 522.526878,250.694572 523.138743,250.736627 523.542293,245.675728 523.072908,245.630510 523.338076,242.286337 523.902449,242.329446 524.316113,237.112536 523.819835,237.079042 524.091296,233.712474 524.608176,233.756638 524.925887,229.721386 526.197610,229.826687 526.596109,224.843794 527.413735,224.369411 527.873428,219.696733 527.043200,218.991868 527.466866,213.919395 526.385608,213.832121 526.730828,209.506940 526.152882,209.464132 526.364527,206.766549 527.030923,206.818522 527.487518,201.088789 526.848261,201.036214 527.071008,198.227109 527.744190,198.278931 528.201528,192.582564 527.718815,192.548769 528.095366,187.800044 528.646175,187.843455 529.103269,182.135967 528.654232,182.090296 528.803226,180.239804 528.920892,178.812857 529.492057,178.855816 529.555946,178.064337 529.011921,178.020775 529.113430,176.783356 526.733287,176.591382 526.690612,177.115328 523.956915,176.897821 524.005387,176.329236 518.490250,175.884159 518.447822,176.419227 513.293271,176.010661 513.340754,175.397588 508.458091,175.005247 508.416159,175.562559 505.294733,175.309160 505.341968,174.684965 499.752193,174.241566 499.703723,174.810151 496.446599,174.559771 496.500371,173.924302 492.596952,173.610382 492.676745,172.618251 487.012332,172.176524 486.889868,173.692601 484.244370,173.473157 481.891610,173.291725 482.035284,171.508115 476.465856,171.064290 476.380269,172.101060 472.021271,171.752763 471.972557,172.310226 469.381831,172.111830 469.423759,171.554517 463.861115,171.110557 463.808829,171.812758 460.939180,171.587178 460.997756,170.862582 455.693677,170.446270 455.645954,171.048222 449.927008,170.596621 449.984842,169.838658 445.068241,169.447133 445.015217,170.115969 442.220446,169.899864 442.279267,169.186389 439.429969,168.960370"/>
    <poly id="15976893" type="building.university" color="255,230,230" fill="1" layer="-1.00" shape="224.190218,165.100662 224.285608,163.896753 187.615924,160.874110 183.916494,205.389188 199.524139,206.677421 190.386092,316.677406 176.751063,315.556708 175.535670,330.172127 183.009621,330.795744 182.940244,331.642991 202.716402,333.283498 202.786030,332.447374 210.885649,333.123868 219.383581,232.162704 242.417968,234.086939 242.181569,236.885239 247.411465,237.325224 267.977483,239.059704 271.411977,239.350496 271.658992,236.418429 295.190353,238.409745 286.579751,339.562401 292.693766,340.082909 292.601438,341.119834 303.244922,342.029206 309.297621,342.539971 309.384405,341.558809 315.382827,342.070789 315.586962,339.651550 316.294299,339.713711 317.356183,327.638857 307.337852,326.760058 316.963174,216.883075 333.823842,218.355290 337.694374,174.148141 301.483517,170.992045 301.407084,171.828318 300.444302,182.866097 297.331997,218.421372 273.207539,216.320835 273.462332,213.433106 272.897705,213.378903 273.086918,211.204803 258.900071,210.007124 245.590442,208.878983 245.412830,210.963805 244.739645,210.912022 244.487592,213.922095 220.297459,211.923427 223.236768,176.549977 224.190218,165.100662"/>
    <poly id="16000014" type="leisure.park" color="207,245,201" fill="1" layer="-2.00" shape="575.518699,315.716673 583.966040,320.748094 607.567507,334.801673 621.875487,343.319631 636.046983,351.807273 658.741726,365.391582 666.927380,370.262029 741.491615,244.581142 650.048599,191.303663 575.518699,315.716673"/>
    <poly id="165015473" type="amenity.events_venue" color="237,199,199" fill="1" layer="-1.00" shape="348.320255,754.541028 368.192646,748.379523 377.712478,779.080457 357.975143,785.205542 355.157466,786.080517 348.898428,765.889497 351.633965,764.982962 349.674601,758.672649 348.320255,754.541028"/>
    <poly id="16873207" type="leisure.park" color="207,245,201" fill="1" layer="-2.00" shape="646.991676,429.057278 686.559199,455.131092 698.541433,458.270540 706.006579,452.385488 747.391889,416.227284 751.525332,410.082292 682.979038,370.484812 646.991676,429.057278"/>