<?xml version="1.0" encoding="UTF-8"?>

<!-- generated on Sun Feb 14 23:22:24 2021 by Eclipse SUMO netconvert Version 1.6.0
<configuration xmlns:xsi="http://www.w3.org/2001/XMLSchema-instance" xsi:noNamespaceSchemaLocation="http://sumo.dlr.de/xsd/netconvertConfiguration.xsd">

    <input>
        <type-files value="/usr/share/sumo/data/typemap/osmNetconvert.typ.xml"/>
        <osm-files value="osm_bbox.osm.xml"/>
    </input>

    <output>
        <output-file value="osm.net.xml"/>
        <output.street-names value="true"/>
        <output.original-names value="true"/>
    </output>

    <projection>
        <proj.utm value="true"/>
    </projection>

    <processing>
        <geometry.remove value="true"/>
        <roundabouts.guess value="true"/>
    </processing>

    <tls_building>
        <tls.discard-simple value="true"/>
        <tls.join value="true"/>
        <tls.guess-signals value="true"/>
        <tls.default-type value="actuated"/>
    </tls_building>

    <ramp_guessing>
        <ramps.guess value="true"/>
    </ramp_guessing>

    <junctions>
        <junctions.join value="true"/>
        <junctions.corner-detail value="5"/>
    </junctions>

    <report>
        <verbose value="true"/>
        <aggregate-warnings value="5"/>
    </report>

</configuration>
-->

<net version="1.6" junctionCornerDetail="5" limitTurnSpeed="5.50" xmlns:xsi="http://www.w3.org/2001/XMLSchema-instance" xsi:noNamespaceSchemaLocation="http://sumo.dlr.de/xsd/net_file.xsd">

    <location netOffset="-390748.78,-5819654.74" convBoundary="0.00,0.00,951.73,922.32" origBoundary="13.372213,52.515007,13.407808,52.524407" projParameter="+proj=utm +zone=33 +ellps=WGS84 +datum=WGS84 +units=m +no_defs"/>

    <type id="highway.bridleway" priority="1" numLanes="1" speed="2.78" allow="pedestrian" oneway="1" width="2.00"/>
    <type id="highway.bus_guideway" priority="1" numLanes="1" speed="27.78" allow="bus" oneway="1"/>
    <type id="highway.cycleway" priority="1" numLanes="1" speed="8.33" allow="bicycle" oneway="0" width="1.00"/>
    <type id="highway.footway" priority="1" numLanes="1" speed="2.78" allow="pedestrian" oneway="1" width="2.00"/>
    <type id="highway.ford" priority="1" numLanes="1" speed="2.78" allow="army" oneway="0"/>
    <type id="highway.living_street" priority="2" numLanes="1" speed="2.78" disallow="tram rail_urban rail rail_electric rail_fast ship" oneway="0"/>
    <type id="highway.motorway" priority="14" numLanes="2" speed="39.44" allow="private emergency authority army vip passenger hov taxi bus coach delivery truck trailer motorcycle evehicle custom1 custom2" oneway="1"/>
    <type id="highway.motorway_link" priority="9" numLanes="1" speed="22.22" allow="private emergency authority army vip passenger hov taxi bus coach delivery truck trailer motorcycle evehicle custom1 custom2" oneway="1"/>
    <type id="highway.path" priority="1" numLanes="1" speed="2.78" allow="pedestrian bicycle" oneway="1" width="2.00"/>
    <type id="highway.pedestrian" priority="1" numLanes="1" speed="2.78" allow="pedestrian" oneway="1" width="2.00"/>
    <type id="highway.primary" priority="12" numLanes="2" speed="27.78" disallow="tram rail_urban rail rail_electric rail_fast ship" oneway="0"/>
    <type id="highway.primary_link" priority="7" numLanes="1" speed="22.22" disallow="tram rail_urban rail rail_electric rail_fast ship" oneway="0"/>
    <type id="highway.raceway" priority="15" numLanes="2" speed="83.33" allow="vip" oneway="0"/>
    <type id="highway.residential" priority="3" numLanes="1" speed="13.89" disallow="tram rail_urban rail rail_electric rail_fast ship" oneway="0"/>
    <type id="highway.secondary" priority="11" numLanes="1" speed="27.78" disallow="tram rail_urban rail rail_electric rail_fast ship" oneway="0"/>
    <type id="highway.secondary_link" priority="6" numLanes="1" speed="22.22" disallow="tram rail_urban rail rail_electric rail_fast ship" oneway="0"/>
    <type id="highway.service" priority="1" numLanes="1" speed="5.56" allow="pedestrian delivery bicycle" oneway="0"/>
    <type id="highway.stairs" priority="1" numLanes="1" speed="1.39" allow="pedestrian" oneway="1" width="2.00"/>
    <type id="highway.step" priority="1" numLanes="1" speed="1.39" allow="pedestrian" oneway="1" width="2.00"/>
    <type id="highway.steps" priority="1" numLanes="1" speed="1.39" allow="pedestrian" oneway="1" width="2.00"/>
    <type id="highway.tertiary" priority="10" numLanes="1" speed="22.22" disallow="tram rail_urban rail rail_electric rail_fast ship" oneway="0"/>
    <type id="highway.tertiary_link" priority="5" numLanes="1" speed="22.22" disallow="tram rail_urban rail rail_electric rail_fast ship" oneway="0"/>
    <type id="highway.track" priority="1" numLanes="1" speed="5.56" disallow="tram rail_urban rail rail_electric rail_fast ship" oneway="0"/>
    <type id="highway.trunk" priority="13" numLanes="2" speed="27.78" disallow="pedestrian bicycle tram rail_urban rail rail_electric rail_fast ship" oneway="0"/>
    <type id="highway.trunk_link" priority="8" numLanes="1" speed="22.22" disallow="pedestrian bicycle tram rail_urban rail rail_electric rail_fast ship" oneway="0"/>
    <type id="highway.unclassified" priority="4" numLanes="1" speed="13.89" disallow="tram rail_urban rail rail_electric rail_fast ship" oneway="0"/>
    <type id="highway.unsurfaced" priority="1" numLanes="1" speed="8.33" disallow="tram rail_urban rail rail_electric rail_fast ship" oneway="0"/>
    <type id="railway.highspeed" priority="21" numLanes="1" speed="69.44" allow="rail_fast" oneway="1"/>
    <type id="railway.light_rail" priority="19" numLanes="1" speed="27.78" allow="rail_urban" oneway="1"/>
    <type id="railway.preserved" priority="16" numLanes="1" speed="27.78" allow="rail" oneway="1"/>
    <type id="railway.rail" priority="20" numLanes="1" speed="44.44" allow="rail" oneway="1"/>
    <type id="railway.subway" priority="18" numLanes="1" speed="27.78" allow="rail_urban" oneway="1"/>
    <type id="railway.tram" priority="17" numLanes="1" speed="13.89" allow="tram" oneway="1"/>

    <edge id=":1075544310_0" function="internal">
        <lane id=":1075544310_0_0" index="0" disallow="tram rail_urban rail rail_electric rail_fast ship" speed="3.65" length="4.67" shape="306.37,731.13 306.74,729.73 307.37,729.10 308.26,729.22 309.40,730.10"/>
    </edge>
    <edge id=":1217651538_0" function="internal">
        <lane id=":1217651538_0_0" index="0" allow="pedestrian delivery bicycle" speed="5.17" length="5.16" shape="324.50,545.09 323.22,544.37 322.04,544.20 320.95,544.57 319.95,545.48"/>
    </edge>
    <edge id=":1217651538_1" function="internal">
        <lane id=":1217651538_1_0" index="0" allow="pedestrian delivery bicycle" speed="6.87" length="10.36" shape="324.50,545.09 322.51,543.09 321.66,540.92 321.96,538.60 323.40,536.11"/>
    </edge>
    <edge id=":1217651538_2" function="internal">
        <lane id=":1217651538_2_0" index="0" allow="pedestrian delivery bicycle" speed="3.65" length="4.67" shape="324.50,545.09 324.02,543.73 324.18,542.85 324.98,542.45 326.42,542.53"/>
    </edge>
    <edge id=":1217651538_3" function="internal">
        <lane id=":1217651538_3_0" index="0" allow="pedestrian delivery bicycle" speed="5.03" length="5.06" shape="325.87,538.15 325.17,539.36 325.03,540.50 325.44,541.55 326.42,542.53"/>
    </edge>
    <edge id=":1217651538_4" function="internal">
        <lane id=":1217651538_4_0" index="0" disallow="tram rail_urban rail rail_electric rail_fast ship" speed="8.33" length="9.42" shape="325.87,538.15 319.95,545.48"/>
    </edge>
    <edge id=":1217651538_5" function="internal">
        <lane id=":1217651538_5_0" index="0" disallow="tram rail_urban rail rail_electric rail_fast ship" speed="3.65" length="2.34" shape="325.87,538.15 324.49,538.57 323.62,538.37"/>
    </edge>
    <edge id=":1217651538_9" function="internal">
        <lane id=":1217651538_9_0" index="0" disallow="tram rail_urban rail rail_electric rail_fast ship" speed="3.65" length="2.34" shape="323.62,538.37 323.25,537.55 323.40,536.11"/>
    </edge>
    <edge id=":1217651538_6" function="internal">
        <lane id=":1217651538_6_0" index="0" disallow="tram rail_urban rail rail_electric rail_fast ship" speed="8.33" length="9.45" shape="317.46,543.46 323.40,536.11"/>
    </edge>
    <edge id=":1217651538_7" function="internal">
        <lane id=":1217651538_7_0" index="0" allow="pedestrian delivery bicycle" speed="6.95" length="5.02" shape="317.46,543.46 319.47,541.62 321.63,540.85"/>
    </edge>
    <edge id=":1217651538_8" function="internal">
        <lane id=":1217651538_8_0" index="0" disallow="tram rail_urban rail rail_electric rail_fast ship" speed="3.65" length="2.34" shape="317.46,543.46 318.84,543.03 319.71,543.23"/>
    </edge>
    <edge id=":1217651538_10" function="internal">
        <lane id=":1217651538_10_0" index="0" allow="pedestrian delivery bicycle" speed="6.95" length="5.17" shape="321.63,540.85 323.95,541.15 326.42,542.53"/>
    </edge>
    <edge id=":1217651538_11" function="internal">
        <lane id=":1217651538_11_0" index="0" disallow="tram rail_urban rail rail_electric rail_fast ship" speed="3.65" length="2.34" shape="319.71,543.23 320.08,544.04 319.95,545.48"/>
    </edge>
    <edge id=":1371317063_0" function="internal">
        <lane id=":1371317063_0_0" index="0" disallow="tram rail_urban rail rail_electric rail_fast ship" speed="8.33" length="5.29" shape="469.30,331.76 464.75,329.06"/>
    </edge>
    <edge id=":1371317063_1" function="internal">
        <lane id=":1371317063_1_0" index="0" disallow="tram rail_urban rail rail_electric rail_fast ship" speed="3.65" length="4.67" shape="469.30,331.76 468.66,330.47 468.72,329.57 469.46,329.08 470.90,328.99"/>
    </edge>
    <edge id=":1371317063_2" function="internal">
        <lane id=":1371317063_2_0" index="0" disallow="tram rail_urban rail rail_electric rail_fast ship" speed="8.33" length="5.25" shape="466.38,326.31 470.90,328.99"/>
    </edge>
    <edge id=":1371317063_3" function="internal">
        <lane id=":1371317063_3_0" index="0" disallow="tram rail_urban rail rail_electric rail_fast ship" speed="3.65" length="4.67" shape="466.38,326.31 467.01,327.62 466.94,328.51 466.19,328.99 464.75,329.06"/>
    </edge>
    <edge id=":1449754450_0" function="internal">
        <lane id=":1449754450_0_0" index="0" allow="pedestrian delivery bicycle" speed="4.93" length="5.13" shape="411.19,340.77 409.81,340.42 408.69,340.63 407.83,341.38 407.24,342.68"/>
    </edge>
    <edge id=":1449754450_1" function="internal">
        <lane id=":1449754450_1_0" index="0" allow="pedestrian delivery bicycle" speed="5.56" length="9.44" shape="411.19,340.77 402.46,337.20"/>
    </edge>
    <edge id=":1449754450_2" function="internal">
        <lane id=":1449754450_2_0" index="0" allow="pedestrian delivery bicycle" speed="3.65" length="4.67" shape="411.19,340.77 410.38,339.57 410.32,338.68 410.99,338.09 412.40,337.81"/>
    </edge>
    <edge id=":1449754450_3" function="internal">
        <lane id=":1449754450_3_0" index="0" allow="pedestrian delivery bicycle" speed="5.56" length="9.44" shape="403.66,334.24 412.40,337.81"/>
    </edge>
    <edge id=":1449754450_4" function="internal">
        <lane id=":1449754450_4_0" index="0" allow="pedestrian delivery bicycle" speed="5.56" length="10.22" shape="403.66,334.24 405.91,335.59 407.25,337.45 407.70,339.81 407.24,342.68"/>
    </edge>
    <edge id=":1449754450_5" function="internal">
        <lane id=":1449754450_5_0" index="0" allow="pedestrian delivery bicycle" speed="3.65" length="4.67" shape="403.66,334.24 404.47,335.43 404.54,336.33 403.87,336.91 402.46,337.20"/>
    </edge>
    <edge id=":1449754450_6" function="internal">
        <lane id=":1449754450_6_0" index="0" allow="pedestrian delivery bicycle" speed="5.41" length="5.45" shape="404.17,341.79 404.44,340.20 404.24,338.90 403.58,337.91 402.46,337.20"/>
    </edge>
    <edge id=":1449754450_7" function="internal">
        <lane id=":1449754450_7_0" index="0" allow="pedestrian delivery bicycle" speed="5.56" length="10.70" shape="404.17,341.79 405.40,339.08 407.18,337.51 409.51,337.09 412.40,337.81"/>
    </edge>
    <edge id=":1449754450_8" function="internal">
        <lane id=":1449754450_8_0" index="0" allow="pedestrian delivery bicycle" speed="3.65" length="4.67" shape="404.17,341.79 405.27,340.86 406.15,340.70 406.81,341.30 407.24,342.68"/>
    </edge>
    <edge id=":1457124706_0" function="internal">
        <lane id=":1457124706_0_0" index="0" allow="pedestrian delivery bicycle" speed="3.65" length="4.67" shape="391.36,287.19 392.28,286.07 393.11,285.76 393.87,286.23 394.55,287.51"/>
    </edge>
    <edge id=":1457124739_0" function="internal">
        <lane id=":1457124739_0_0" index="0" allow="pedestrian delivery bicycle" speed="5.56" length="8.81" shape="391.70,332.81 389.68,331.66 388.30,330.11 387.57,328.17 387.50,325.83"/>
    </edge>
    <edge id=":1457124739_1" function="internal">
        <lane id=":1457124739_1_0" index="0" allow="pedestrian delivery bicycle" speed="3.65" length="4.67" shape="391.70,332.81 390.89,331.62 390.83,330.73 391.50,330.14 392.91,329.85"/>
    </edge>
    <edge id=":1457124739_2" function="internal">
        <lane id=":1457124739_2_0" index="0" allow="pedestrian delivery bicycle" speed="5.44" length="4.67" shape="390.69,326.15 390.72,327.39 391.11,328.42 391.84,329.24 392.91,329.85"/>
    </edge>
    <edge id=":1457124739_3" function="internal">
        <lane id=":1457124739_3_0" index="0" allow="pedestrian delivery bicycle" speed="3.65" length="4.67" shape="390.69,326.15 389.77,327.26 388.93,327.58 388.18,327.11 387.50,325.83"/>
    </edge>
    <edge id=":1457124764_0" function="internal">
        <lane id=":1457124764_0_0" index="0" allow="pedestrian delivery bicycle" speed="3.65" length="4.67" shape="433.06,346.25 433.87,347.44 433.94,348.33 433.27,348.92 431.85,349.21"/>
    </edge>
    <edge id=":1473258656_0" function="internal">
        <lane id=":1473258656_0_0" index="0" allow="pedestrian delivery bicycle" speed="4.17" length="5.46" shape="606.81,416.24 605.59,415.72 604.39,415.76 603.21,416.34 602.06,417.48"/>
    </edge>
    <edge id=":1473258656_1" function="internal">
        <lane id=":1473258656_1_0" index="0" disallow="tram rail_urban rail rail_electric rail_fast ship" speed="2.78" length="9.44" shape="606.81,416.24 598.87,411.14"/>
    </edge>
    <edge id=":1473258656_2" function="internal">
        <lane id=":1473258656_2_0" index="0" disallow="tram rail_urban rail rail_electric rail_fast ship" speed="2.78" length="2.34" shape="606.81,416.24 606.23,414.92 606.33,414.03"/>
    </edge>
    <edge id=":1473258656_9" function="internal">
        <lane id=":1473258656_9_0" index="0" disallow="tram rail_urban rail rail_electric rail_fast ship" speed="2.78" length="2.34" shape="606.33,414.03 607.10,413.57 608.54,413.55"/>
    </edge>
    <edge id=":1473258656_3" function="internal">
        <lane id=":1473258656_3_0" index="0" disallow="tram rail_urban rail rail_electric rail_fast ship" speed="2.78" length="9.44" shape="600.60,408.45 608.54,413.55"/>
    </edge>
    <edge id=":1473258656_4" function="internal">
        <lane id=":1473258656_4_0" index="0" allow="pedestrian delivery bicycle" speed="4.17" length="5.17" shape="600.60,408.45 602.85,410.40 603.77,412.38"/>
    </edge>
    <edge id=":1473258656_5" function="internal">
        <lane id=":1473258656_5_0" index="0" disallow="tram rail_urban rail rail_electric rail_fast ship" speed="2.78" length="2.34" shape="600.60,408.45 601.18,409.77 601.08,410.66"/>
    </edge>
    <edge id=":1473258656_10" function="internal">
        <lane id=":1473258656_10_0" index="0" allow="pedestrian delivery bicycle" speed="4.17" length="5.55" shape="603.77,412.38 603.85,412.56 603.58,414.92 602.06,417.48"/>
    </edge>
    <edge id=":1473258656_11" function="internal">
        <lane id=":1473258656_11_0" index="0" disallow="tram rail_urban rail rail_electric rail_fast ship" speed="2.78" length="2.34" shape="601.08,410.66 600.31,411.12 598.87,411.14"/>
    </edge>
    <edge id=":1473258656_6" function="internal">
        <lane id=":1473258656_6_0" index="0" allow="pedestrian delivery bicycle" speed="4.17" length="5.13" shape="599.57,415.47 600.30,414.24 600.42,413.11 599.95,412.08 598.87,411.14"/>
    </edge>
    <edge id=":1473258656_7" function="internal">
        <lane id=":1473258656_7_0" index="0" allow="pedestrian delivery bicycle" speed="4.17" length="10.22" shape="599.57,415.47 601.66,413.45 603.85,412.46 606.15,412.49 608.54,413.55"/>
    </edge>
    <edge id=":1473258656_8" function="internal">
        <lane id=":1473258656_8_0" index="0" allow="pedestrian delivery bicycle" speed="3.65" length="4.67" shape="599.57,415.47 600.94,415.04 601.82,415.23 602.19,416.04 602.06,417.48"/>
    </edge>
    <edge id=":1473258657_0" function="internal">
        <lane id=":1473258657_0_0" index="0" allow="pedestrian bicycle" speed="2.78" length="5.01" width="2.00" shape="588.31,415.02 592.49,417.78"/>
    </edge>
    <edge id=":1473258657_1" function="internal">
        <lane id=":1473258657_1_0" index="0" allow="pedestrian bicycle" speed="2.78" length="4.12" width="2.00" shape="588.89,418.48 589.70,417.67 590.57,417.28 591.50,417.32 592.49,417.78"/>
    </edge>
    <edge id=":1473258660_0" function="internal">
        <lane id=":1473258660_0_0" index="0" allow="pedestrian bicycle" speed="4.17" length="4.58" width="2.00" shape="600.24,419.79 599.72,420.81 599.73,421.79 600.27,422.72 601.33,423.61"/>
    </edge>
    <edge id=":1473258660_1" function="internal">
        <lane id=":1473258660_1_0" index="0" allow="pedestrian delivery bicycle" speed="5.56" length="5.39" shape="600.24,419.79 597.01,424.10"/>
    </edge>
    <edge id=":1473258660_2" function="internal">
        <lane id=":1473258660_2_0" index="0" allow="pedestrian delivery bicycle" speed="3.65" length="2.34" shape="600.24,419.79 598.88,420.27 598.00,420.11"/>
    </edge>
    <edge id=":1473258660_9" function="internal">
        <lane id=":1473258660_9_0" index="0" allow="pedestrian delivery bicycle" speed="3.65" length="2.34" shape="598.00,420.11 597.60,419.31 597.68,417.87"/>
    </edge>
    <edge id=":1473258660_3" function="internal">
        <lane id=":1473258660_3_0" index="0" allow="pedestrian bicycle" speed="4.17" length="4.88" shape="593.37,418.36 594.63,418.99 595.76,419.11 596.78,418.74 597.68,417.87"/>
    </edge>
    <edge id=":1473258660_4" function="internal">
        <lane id=":1473258660_4_0" index="0" allow="pedestrian bicycle" speed="2.78" length="9.53" width="2.00" shape="593.37,418.36 601.33,423.61"/>
    </edge>
    <edge id=":1473258660_5" function="internal">
        <lane id=":1473258660_5_0" index="0" allow="pedestrian bicycle" speed="4.17" length="7.50" shape="593.37,418.36 595.59,420.04 596.93,421.56 597.41,422.91 597.01,424.10"/>
    </edge>
    <edge id=":1473258660_6" function="internal">
        <lane id=":1473258660_6_0" index="0" allow="pedestrian delivery bicycle" speed="5.56" length="5.39" shape="594.45,422.18 597.68,417.87"/>
    </edge>
    <edge id=":1473258660_7" function="internal">
        <lane id=":1473258660_7_0" index="0" allow="pedestrian bicycle" speed="4.17" length="2.71" width="2.00" shape="594.45,422.18 595.46,421.50 596.94,421.50"/>
    </edge>
    <edge id=":1473258660_8" function="internal">
        <lane id=":1473258660_8_0" index="0" allow="pedestrian delivery bicycle" speed="3.65" length="2.34" shape="594.45,422.18 595.81,421.70 596.69,421.86"/>
    </edge>
    <edge id=":1473258660_10" function="internal">
        <lane id=":1473258660_10_0" index="0" allow="pedestrian bicycle" speed="4.17" length="4.88" width="2.00" shape="596.94,421.50 598.90,422.21 601.33,423.61"/>
    </edge>
    <edge id=":1473258660_11" function="internal">
        <lane id=":1473258660_11_0" index="0" allow="pedestrian delivery bicycle" speed="3.65" length="2.34" shape="596.69,421.86 597.09,422.66 597.01,424.10"/>
    </edge>
    <edge id=":1473258664_0" function="internal">
        <lane id=":1473258664_0_0" index="0" allow="pedestrian delivery bicycle" speed="4.17" length="5.07" shape="664.94,453.63 663.68,453.01 662.55,452.97 661.54,453.49 660.66,454.58"/>
    </edge>
    <edge id=":1473258664_1" function="internal">
        <lane id=":1473258664_1_0" index="0" disallow="tram rail_urban rail rail_electric rail_fast ship" speed="2.78" length="9.45" shape="664.94,453.63 657.05,448.42"/>
    </edge>
    <edge id=":1473258664_2" function="internal">
        <lane id=":1473258664_2_0" index="0" disallow="tram rail_urban rail rail_electric rail_fast ship" speed="2.78" length="2.34" shape="664.94,453.63 664.40,452.29 664.52,451.41"/>
    </edge>
    <edge id=":1473258664_9" function="internal">
        <lane id=":1473258664_9_0" index="0" disallow="tram rail_urban rail rail_electric rail_fast ship" speed="2.78" length="2.34" shape="664.52,451.41 665.30,450.97 666.74,450.98"/>
    </edge>
    <edge id=":1473258664_3" function="internal">
        <lane id=":1473258664_3_0" index="0" disallow="tram rail_urban rail rail_electric rail_fast ship" speed="2.78" length="9.54" shape="658.77,445.73 666.74,450.98"/>
    </edge>
    <edge id=":1473258664_4" function="internal">
        <lane id=":1473258664_4_0" index="0" allow="pedestrian delivery bicycle" speed="4.17" length="5.04" shape="658.77,445.73 660.83,447.52 661.84,449.60"/>
    </edge>
    <edge id=":1473258664_5" function="internal">
        <lane id=":1473258664_5_0" index="0" disallow="tram rail_urban rail rail_electric rail_fast ship" speed="2.78" length="2.34" shape="658.77,445.73 659.35,447.05 659.26,447.94"/>
    </edge>
    <edge id=":1473258664_10" function="internal">
        <lane id=":1473258664_10_0" index="0" allow="pedestrian delivery bicycle" speed="4.17" length="5.21" shape="661.84,449.60 661.78,451.95 660.66,454.58"/>
    </edge>
    <edge id=":1473258664_11" function="internal">
        <lane id=":1473258664_11_0" index="0" disallow="tram rail_urban rail rail_electric rail_fast ship" speed="2.78" length="2.34" shape="659.26,447.94 658.49,448.40 657.05,448.42"/>
    </edge>
    <edge id=":1473258664_6" function="internal">
        <lane id=":1473258664_6_0" index="0" allow="pedestrian delivery bicycle" speed="4.17" length="5.20" shape="657.91,452.94 658.50,451.58 658.55,450.37 658.07,449.32 657.05,448.42"/>
    </edge>
    <edge id=":1473258664_7" function="internal">
        <lane id=":1473258664_7_0" index="0" allow="pedestrian delivery bicycle" speed="4.17" length="10.46" shape="657.91,452.94 659.73,450.69 661.80,449.62 664.14,449.71 666.74,450.98"/>
    </edge>
    <edge id=":1473258664_8" function="internal">
        <lane id=":1473258664_8_0" index="0" allow="pedestrian delivery bicycle" speed="3.65" length="4.67" shape="657.91,452.94 659.21,452.32 660.10,452.38 660.58,453.14 660.66,454.58"/>
    </edge>
    <edge id=":1473258672_0" function="internal">
        <lane id=":1473258672_0_0" index="0" allow="pedestrian delivery bicycle" speed="5.56" length="10.13" shape="574.26,459.88 572.30,457.91 571.43,455.79 571.66,453.51 572.99,451.07"/>
    </edge>
    <edge id=":1473258672_1" function="internal">
        <lane id=":1473258672_1_0" index="0" allow="pedestrian delivery bicycle" speed="3.65" length="4.67" shape="574.26,459.88 573.78,458.51 573.94,457.63 574.74,457.24 576.18,457.32"/>
    </edge>
    <edge id=":1473258672_2" function="internal">
        <lane id=":1473258672_2_0" index="0" allow="pedestrian delivery bicycle" speed="5.05" length="4.99" shape="575.55,452.98 574.90,454.18 574.79,455.30 575.22,456.35 576.18,457.32"/>
    </edge>
    <edge id=":1473258672_3" function="internal">
        <lane id=":1473258672_3_0" index="0" allow="pedestrian delivery bicycle" speed="3.65" length="4.67" shape="575.55,452.98 574.20,453.46 573.32,453.31 572.91,452.51 572.99,451.07"/>
    </edge>
    <edge id=":1473258678_0" function="internal">
        <lane id=":1473258678_0_0" index="0" allow="pedestrian bicycle" speed="4.17" length="4.57" width="2.00" shape="658.31,457.98 657.79,458.99 657.79,459.96 658.31,460.91 659.35,461.81"/>
    </edge>
    <edge id=":1473258678_1" function="internal">
        <lane id=":1473258678_1_0" index="0" allow="pedestrian delivery bicycle" speed="5.56" length="5.37" shape="658.31,457.98 655.06,462.26"/>
    </edge>
    <edge id=":1473258678_2" function="internal">
        <lane id=":1473258678_2_0" index="0" allow="pedestrian delivery bicycle" speed="3.65" length="2.34" shape="658.31,457.98 656.94,458.45 656.06,458.29"/>
    </edge>
    <edge id=":1473258678_9" function="internal">
        <lane id=":1473258678_9_0" index="0" allow="pedestrian delivery bicycle" speed="3.65" length="2.34" shape="656.06,458.29 655.67,457.48 655.76,456.04"/>
    </edge>
    <edge id=":1473258678_3" function="internal">
        <lane id=":1473258678_3_0" index="0" allow="pedestrian bicycle" speed="4.17" length="4.88" shape="651.43,456.51 652.70,457.13 653.84,457.26 654.86,456.90 655.76,456.04"/>
    </edge>
    <edge id=":1473258678_4" function="internal">
        <lane id=":1473258678_4_0" index="0" allow="pedestrian bicycle" speed="2.78" length="9.53" width="2.00" shape="651.43,456.51 659.35,461.81"/>
    </edge>
    <edge id=":1473258678_5" function="internal">
        <lane id=":1473258678_5_0" index="0" allow="pedestrian bicycle" speed="4.17" length="7.52" shape="651.43,456.51 653.66,458.18 655.01,459.70 655.47,461.06 655.06,462.26"/>
    </edge>
    <edge id=":1473258678_6" function="internal">
        <lane id=":1473258678_6_0" index="0" allow="pedestrian delivery bicycle" speed="5.56" length="5.38" shape="652.51,460.33 655.76,456.04"/>
    </edge>
    <edge id=":1473258678_7" function="internal">
        <lane id=":1473258678_7_0" index="0" allow="pedestrian bicycle" speed="4.17" length="2.72" width="2.00" shape="652.51,460.33 653.53,459.63 655.01,459.65"/>
    </edge>
    <edge id=":1473258678_8" function="internal">
        <lane id=":1473258678_8_0" index="0" allow="pedestrian delivery bicycle" speed="3.65" length="2.34" shape="652.51,460.33 653.87,459.86 654.75,460.02"/>
    </edge>
    <edge id=":1473258678_10" function="internal">
        <lane id=":1473258678_10_0" index="0" allow="pedestrian bicycle" speed="4.17" length="4.86" width="2.00" shape="655.01,459.65 656.95,460.37 659.35,461.81"/>
    </edge>
    <edge id=":1473258678_11" function="internal">
        <lane id=":1473258678_11_0" index="0" allow="pedestrian delivery bicycle" speed="3.65" length="2.34" shape="654.75,460.02 655.15,460.82 655.06,462.26"/>
    </edge>
    <edge id=":1473258716_0" function="internal">
        <lane id=":1473258716_0_0" index="0" allow="pedestrian bicycle" speed="2.78" length="4.06" width="2.00" shape="672.29,470.66 673.12,471.42 673.49,472.25 673.40,473.16 672.85,474.14"/>
    </edge>
    <edge id=":1473258747_0" function="internal">
        <lane id=":1473258747_0_0" index="0" allow="pedestrian delivery bicycle" speed="5.56" length="9.40" shape="630.61,494.52 624.93,502.01"/>
    </edge>
    <edge id=":1473258747_1" function="internal">
        <lane id=":1473258747_1_0" index="0" allow="pedestrian delivery bicycle" speed="5.56" length="10.16" shape="630.61,494.52 628.63,496.47 626.50,497.33 624.22,497.08 621.78,495.73"/>
    </edge>
    <edge id=":1473258747_2" function="internal">
        <lane id=":1473258747_2_0" index="0" allow="pedestrian delivery bicycle" speed="3.65" length="4.67" shape="630.61,494.52 629.25,494.99 628.37,494.83 627.97,494.02 628.06,492.59"/>
    </edge>
    <edge id=":1473258747_3" function="internal">
        <lane id=":1473258747_3_0" index="0" allow="pedestrian delivery bicycle" speed="5.05" length="5.01" shape="623.71,493.18 624.91,493.85 626.04,493.97 627.09,493.55 628.06,492.59"/>
    </edge>
    <edge id=":1473258747_4" function="internal">
        <lane id=":1473258747_4_0" index="0" allow="pedestrian delivery bicycle" speed="5.56" length="10.17" shape="623.71,493.18 625.67,495.16 626.53,497.29 626.28,499.57 624.93,502.01"/>
    </edge>
    <edge id=":1473258747_5" function="internal">
        <lane id=":1473258747_5_0" index="0" allow="pedestrian delivery bicycle" speed="3.65" length="4.67" shape="623.71,493.18 624.18,494.54 624.02,495.42 623.22,495.82 621.78,495.73"/>
    </edge>
    <edge id=":1473258747_6" function="internal">
        <lane id=":1473258747_6_0" index="0" allow="pedestrian delivery bicycle" speed="5.04" length="5.00" shape="622.38,500.08 623.05,498.88 623.17,497.75 622.75,496.71 621.78,495.73"/>
    </edge>
    <edge id=":1473258747_7" function="internal">
        <lane id=":1473258747_7_0" index="0" allow="pedestrian delivery bicycle" speed="5.56" length="9.40" shape="622.38,500.08 628.06,492.59"/>
    </edge>
    <edge id=":1473258747_8" function="internal">
        <lane id=":1473258747_8_0" index="0" allow="pedestrian delivery bicycle" speed="3.65" length="4.67" shape="622.38,500.08 623.74,499.60 624.62,499.77 625.02,500.57 624.93,502.01"/>
    </edge>
    <edge id=":1473258756_0" function="internal">
        <lane id=":1473258756_0_0" index="0" allow="pedestrian bicycle" speed="2.78" length="4.13" width="2.00" shape="525.15,505.18 524.17,504.62 523.26,504.54 522.41,504.93 521.64,505.79"/>
    </edge>
    <edge id=":1473258756_1" function="internal">
        <lane id=":1473258756_1_0" index="0" allow="pedestrian bicycle" speed="2.78" length="5.38" width="2.00" shape="525.15,505.18 523.88,504.22 522.95,503.64 521.93,503.23 520.41,502.74"/>
    </edge>
    <edge id=":1473258756_2" function="internal">
        <lane id=":1473258756_2_0" index="0" allow="pedestrian bicycle" speed="2.78" length="4.09" width="2.00" shape="525.15,505.18 524.36,504.36 524.01,503.50 524.11,502.58 524.65,501.62"/>
    </edge>
    <edge id=":1473296997_0" function="internal">