<?xml version="1.0" encoding="UTF-8"?>


<configuration xmlns:xsi="http://www.w3.org/2001/XMLSchema-instance" xsi:noNamespaceSchemaLocation="http://sumo.dlr.de/xsd/sumoConfiguration.xsd">

    <input>
        <net-file value="original_net.xml"/>
        <route-files value="original_route.xml"/>
	    <additional-files value="poly_1000.xml"/>
    </input>

    <report>
        <no-step-log value="true"/>
    </report>

</configuration>
