<?xml version="1.0" encoding="UTF-8"?>

<!-- generated on Mon Jun  1 12:50:55 2020 by Eclipse SUMO duarouter Version 1.6.0
<configuration xmlns:xsi="http://www.w3.org/2001/XMLSchema-instance" xsi:noNamespaceSchemaLocation="http://sumo.dlr.de/xsd/duarouterConfiguration.xsd">

    <input>
        <net-file value="/home/shuto/sumo/tools/2020-06-01-12-50-44/osm.net.xml"/>
        <route-files value="/home/shuto/sumo/tools/2020-06-01-12-50-44/osm.passenger.trips.xml"/>
    </input>

    <output>
        <output-file value="/home/shuto/sumo/tools/2020-06-01-12-50-44/osm.passenger.trips.xml.tmp"/>
        <write-trips value="true"/>
    </output>

    <time>
        <begin value="0"/>
        <end value="3600.0"/>
    </time>

    <report>
        <no-warnings value="true"/>
        <ignore-errors value="true"/>
        <no-step-log value="true"/>
    </report>

</configuration>
-->

<routes xmlns:xsi="http://www.w3.org/2001/XMLSchema-instance" xsi:noNamespaceSchemaLocation="http://sumo.dlr.de/xsd/routes_file.xsd">
    <vType id="veh_passenger" vClass="passenger"/>
    <trip id="veh0" type="veh_passenger" depart="0.00" departLane="best" from="291670881#6" to="-131650081#2"/>
    <trip id="veh1" type="veh_passenger" depart="11.58" departLane="best" departSpeed="max" from="-32858408" to="-315214529#8"/>
    <trip id="veh2" type="veh_passenger" depart="23.16" departLane="best" from="318915601#1" to="312651888#1"/>
    <trip id="veh3" type="veh_passenger" depart="34.74" departLane="best" from="-56680556#2" to="-131650081#5"/>
    <trip id="veh4" type="veh_passenger" depart="46.32" departLane="best" from="292424611#1" to="225400578#2"/>
    <trip id="veh5" type="veh_passenger" depart="57.90" departLane="best" departSpeed="max" from="-291696979#2" to="282760689#1"/>
    <trip id="veh6" type="veh_passenger" depart="69.48" departLane="best" from="437325048#0" to="-111251382#3"/>
    <trip id="veh7" type="veh_passenger" depart="81.06" departLane="best" from="437325047#3" to="318915601#0"/>
    <trip id="veh8" type="veh_passenger" depart="92.64" departLane="best" departSpeed="max" from="56680556#0" to="-517871369"/>
    <trip id="veh9" type="veh_passenger" depart="104.22" departLane="best" from="443435388#2" to="291670881#3"/>
    <trip id="veh10" type="veh_passenger" depart="115.80" departLane="best" from="437325047#5" to="374734383#0"/>
    <trip id="veh11" type="veh_passenger" depart="127.38" departLane="best" from="-465418104#2" to="237209664"/>
    <trip id="veh12" type="veh_passenger" depart="138.96" departLane="best" from="438607981#1" to="291696979#0"/>
    <trip id="veh13" type="veh_passenger" depart="150.54" departLane="best" from="312651885" to="-153692996#0"/>
    <trip id="veh14" type="veh_passenger" depart="162.12" departLane="best" from="-297373653#2" to="-4597199"/>
    <trip id="veh15" type="veh_passenger" depart="173.70" departLane="best" from="-169719829#4" to="-36689633#3"/>
    <trip id="veh16" type="veh_passenger" depart="185.28" departLane="best" from="-176043794" to="-441788215"/>
    <trip id="veh17" type="veh_passenger" depart="196.86" departLane="best" from="291670881#5" to="-56680556#1"/>
    <trip id="veh18" type="veh_passenger" depart="208.44" departLane="best" departSpeed="max" from="-4610356" to="-315214529#10"/>
    <trip id="veh19" type="veh_passenger" depart="220.02" departLane="best" from="-315214529#7" to="517871370#0"/>
    <trip id="veh20" type="veh_passenger" depart="231.60" departLane="best" departSpeed="max" from="-282760689#4" to="374734383#0"/>
    <trip id="veh21" type="veh_passenger" depart="243.18" departLane="best" from="73310501#0" to="291696979#1"/>
    <trip id="veh22" type="veh_passenger" depart="254.76" departLane="best" from="172078325#2" to="315214529#13"/>
    <trip id="veh23" type="veh_passenger" depart="266.34" departLane="best" from="443417151#1" to="389705415#1"/>
    <trip id="veh24" type="veh_passenger" depart="277.92" departLane="best" from="-297373653#2" to="-153692976#0"/>
    <trip id="veh25" type="veh_passenger" depart="289.50" departLane="best" departSpeed="max" from="-291696979#2" to="53257010#2"/>
    <trip id="veh26" type="veh_passenger" depart="301.08" departLane="best" from="4597202#3" to="-4597254#0"/>
    <trip id="veh27" type="veh_passenger" depart="312.66" departLane="best" departSpeed="max" from="297373653#0" to="100113767#2"/>
    <trip id="veh28" type="veh_passenger" depart="324.24" departLane="best" from="465418104#5" to="168940071#3"/>
    <trip id="veh29" type="veh_passenger" depart="335.82" departLane="best" from="-315214529#6" to="-42091232#2"/>
    <trip id="veh30" type="veh_passenger" depart="347.40" departLane="best" from="172078325#5" to="-437325051#0"/>
    <trip id="veh31" type="veh_passenger" depart="358.98" departLane="best" from="176043807#10" to="465382940#1"/>
    <trip id="veh32" type="veh_passenger" depart="370.56" departLane="best" departSpeed="max" from="-51167934#4" to="-315214529#6"/>
    <trip id="veh33" type="veh_passenger" depart="382.14" departLane="best" from="7917219#2" to="176043804#1"/>
    <trip id="veh34" type="veh_passenger" depart="393.72" departLane="best" from="-172078325#5" to="-153692996#0"/>
    <trip id="veh35" type="veh_passenger" depart="405.30" departLane="best" from="-176043806#0" to="291696979#1"/>
    <trip id="veh36" type="veh_passenger" depart="416.88" departLane="best" from="42103020#2" to="153692976#1"/>
    <trip id="veh37" type="veh_passenger" depart="428.46" departLane="best" departSpeed="max" from="-169719061#3" to="-73310501#3"/>
    <trip id="veh38" type="veh_passenger" depart="440.04" departLane="best" from="7917219#1" to="176043807#9"/>
    <trip id="veh39" type="veh_passenger" depart="451.62" departLane="best" from="6227654#1" to="4597202#2"/>
    <trip id="veh40" type="veh_passenger" depart="463.20" departLane="best" from="-117611349#1" to="36689633#1"/>
    <trip id="veh41" type="veh_passenger" depart="474.78" departLane="best" departSpeed="max" from="30720544#0" to="196520271"/>
    <trip id="veh42" type="veh_passenger" depart="486.36" departLane="best" from="-315214529#7" to="291696979#1"/>
    <trip id="veh43" type="veh_passenger" depart="497.94" departLane="best" from="-176043806#1" to="153692991#1"/>
    <trip id="veh44" type="veh_passenger" depart="509.52" departLane="best" from="-7917219#2" to="560370523"/>
    <trip id="veh45" type="veh_passenger" depart="521.10" departLane="best" from="4597202#2" to="-437325051#1"/>
    <trip id="veh46" type="veh_passenger" depart="532.68" departLane="best" from="153692978#3" to="-297373653#0"/>
    <trip id="veh47" type="veh_passenger" depart="544.26" departLane="best" from="465418104#4" to="4597206#4"/>
    <trip id="veh48" type="veh_passenger" depart="555.84" departLane="best" departSpeed="max" from="24243107#0" to="-291670881#2"/>
    <trip id="veh49" type="veh_passenger" depart="567.42" departLane="best" from="374734384#1" to="204032443#0"/>
    <trip id="veh50" type="veh_passenger" depart="579.00" departLane="best" from="389705411#0" to="196520271"/>
    <trip id="veh51" type="veh_passenger" depart="590.58" departLane="best" from="-100113767#1" to="-465418104#3"/>
    <trip id="veh52" type="veh_passenger" depart="602.16" departLane="best" from="-131650081#3" to="51167934#4"/>
    <trip id="veh53" type="veh_passenger" depart="613.74" departLane="best" from="-437325048#1" to="-168940071#3"/>
    <trip id="veh54" type="veh_passenger" depart="625.32" departLane="best" departSpeed="max" from="-169719061#3" to="389705415#1"/>
    <trip id="veh55" type="veh_passenger" depart="636.90" departLane="best" departSpeed="max" from="131505631#0" to="225400578#2"/>
    <trip id="veh56" type="veh_passenger" depart="648.48" departLane="best" from="-315214529#6" to="4597206#5"/>
    <trip id="veh57" type="veh_passenger" depart="660.06" departLane="best" from="-291670881#6" to="-4597206#4"/>
    <trip id="veh58" type="veh_passenger" depart="671.64" departLane="best" from="7917219#1" to="297373653#2"/>
    <trip id="veh59" type="veh_passenger" depart="683.22" departLane="best" from="-6227658#2" to="176043807#10"/>
    <trip id="veh60" type="veh_passenger" depart="694.80" departLane="best" from="-176043807#5" to="-32805741#2"/>
    <trip id="veh61" type="veh_passenger" depart="706.38" departLane="best" departSpeed="max" from="-4592757#2" to="282760689#1"/>
    <trip id="veh62" type="veh_passenger" depart="717.96" departLane="best" from="-297373653#3" to="-315214529#6"/>
    <trip id="veh63" type="veh_passenger" depart="729.54" departLane="best" from="-169719829#0" to="291696979#1"/>
    <trip id="veh64" type="veh_passenger" depart="741.12" departLane="best" from="-297373653#2" to="465418104#4"/>
    <trip id="veh65" type="veh_passenger" depart="752.70" departLane="best" departSpeed="max" from="-291696979#2" to="-241886108#2"/>
    <trip id="veh66" type="veh_passenger" depart="764.28" departLane="best" from="517871370#0" to="268002750"/>
    <trip id="veh67" type="veh_passenger" depart="775.86" departLane="best" from="117611349#1" to="42103020#2"/>
    <trip id="veh68" type="veh_passenger" depart="787.44" departLane="best" from="437325047#5" to="-30196049"/>
    <trip id="veh69" type="veh_passenger" depart="799.01" departLane="best" from="-172078325#8" to="153692984#3"/>
    <trip id="veh70" type="veh_passenger" depart="810.59" departLane="best" from="-60333308#1" to="169719061#1"/>
    <trip id="veh71" type="veh_passenger" depart="822.17" departLane="best" from="315214529#6" to="312651887#2"/>
    <trip id="veh72" type="veh_passenger" depart="833.75" departLane="best" from="713576589#1" to="-172078684#1"/>
    <trip id="veh73" type="veh_passenger" depart="845.33" departLane="best" departSpeed="max" from="-51167934#4" to="-517871369"/>
    <trip id="veh74" type="veh_passenger" depart="856.91" departLane="best" departSpeed="max" from="4597199" to="-437325047#0"/>
    <trip id="veh75" type="veh_passenger" depart="868.49" departLane="best" from="-291670881#2" to="165415454#1"/>
    <trip id="veh76" type="veh_passenger" depart="880.07" departLane="best" from="-56680556#2" to="-441788215"/>
    <trip id="veh77" type="veh_passenger" depart="891.65" departLane="best" from="-73310501#0" to="4597202#2"/>
    <trip id="veh78" type="veh_passenger" depart="903.23" departLane="best" from="169719829#5" to="-153692996#1"/>
    <trip id="veh79" type="veh_passenger" depart="914.81" departLane="best" from="7917219#3" to="4592725#2"/>
    <trip id="veh80" type="veh_passenger" depart="926.39" departLane="best" from="60333317#0" to="51167934#4"/>
    <trip id="veh81" type="veh_passenger" depart="937.97" departLane="best" from="4592725#1" to="-291670881#6"/>
    <trip id="veh82" type="veh_passenger" depart="949.55" departLane="best" from="131650081#1" to="-315214529#13"/>
    <trip id="veh83" type="veh_passenger" depart="961.13" departLane="best" departSpeed="max" from="-51167934#4" to="-168940071#3"/>
    <trip id="veh84" type="veh_passenger" depart="972.71" departLane="best" from="-465418104#2" to="713576590"/>
    <trip id="veh85" type="veh_passenger" depart="984.29" departLane="best" from="-315214529#6" to="42103020#0"/>
    <trip id="veh86" type="veh_passenger" depart="995.87" departLane="best" from="-7917219#3" to="153692976#2"/>
    <trip id="veh87" type="veh_passenger" depart="1007.45" departLane="best" departSpeed="max" from="56680556#0" to="7917219#1"/>
    <trip id="veh88" type="veh_passenger" depart="1019.03" departLane="best" from="169719829#9" to="35269774#2"/>
    <trip id="veh89" type="veh_passenger" depart="1030.61" departLane="best" from="-24243107#1" to="-4597201#2"/>
    <trip id="veh90" type="veh_passenger" depart="1042.19" departLane="best" from="60333317#0" to="278014798#0"/>
    <trip id="veh91" type="veh_passenger" depart="1053.77" departLane="best" from="169719829#10" to="374734389#2"/>
    <trip id="veh92" type="veh_passenger" depart="1065.35" departLane="best" from="-169717723#3" to="282760689#1"/>
    <trip id="veh93" type="veh_passenger" depart="1076.93" departLane="best" from="153692984#0" to="4592757#2"/>
    <trip id="veh94" type="veh_passenger" depart="1088.51" departLane="best" from="-268002745" to="60333317#0"/>
    <trip id="veh95" type="veh_passenger" depart="1100.09" departLane="best" from="-169719829#4" to="-297373653#3"/>
    <trip id="veh96" type="veh_passenger" depart="1111.67" departLane="best" from="176043807#8" to="312651887#2"/>
    <trip id="veh97" type="veh_passenger" depart="1123.25" departLane="best" from="-30196049" to="-176043807#5"/>
    <trip id="veh98" type="veh_passenger" depart="1134.83" departLane="best" from="4597254#0" to="-42091232#2"/>
    <trip id="veh99" type="veh_passenger" depart="1146.41" departLane="best" from="176043807#8" to="291696979#0"/>
    <trip id="veh100" type="veh_passenger" depart="1157.99" departLane="best" from="-560370523" to="282760689#1"/>
    <trip id="veh101" type="veh_passenger" depart="1169.57" departLane="best" from="165415454#1" to="517871368#0"/>
    <trip id="veh102" type="veh_passenger" depart="1181.15" departLane="best" from="-291696979#0" to="35269774#1"/>
    <trip id="veh103" type="veh_passenger" depart="1192.73" departLane="best" from="-312651885" to="100113767#2"/>
    <trip id="veh104" type="veh_passenger" depart="1204.31" departLane="best" departSpeed="max" from="30720544#0" to="-4597202#2"/>
    <trip id="veh105" type="veh_passenger" depart="1215.89" departLane="best" from="-4383280#3" to="380240681"/>
    <trip id="veh106" type="veh_passenger" depart="1227.47" departLane="best" from="-169719829#10" to="168940071#3"/>
    <trip id="veh107" type="veh_passenger" depart="1239.05" departLane="best" from="-169719829#10" to="-315214529#13"/>
    <trip id="veh108" type="veh_passenger" depart="1250.63" departLane="best" from="-315214529#6" to="51167934#4"/>
    <trip id="veh109" type="veh_passenger" depart="1262.21" departLane="best" from="4597206#1" to="4610356"/>
    <trip id="veh110" type="veh_passenger" depart="1273.79" departLane="best" departSpeed="max" from="-4610356" to="-291670881#3"/>
    <trip id="veh111" type="veh_passenger" depart="1285.37" departLane="best" departSpeed="max" from="24243107#0" to="73310501#0"/>
    <trip id="veh112" type="veh_passenger" depart="1296.95" departLane="best" departSpeed="max" from="297373653#0" to="-117611349#1"/>
    <trip id="veh113" type="veh_passenger" depart="1308.53" departLane="best" from="437325054#0" to="-4597202#2"/>
    <trip id="veh114" type="veh_passenger" depart="1320.11" departLane="best" from="297373653#3" to="517871370#1"/>
    <trip id="veh115" type="veh_passenger" depart="1331.69" departLane="best" departSpeed="max" from="-225400578#2" to="-176043807#3"/>
    <trip id="veh116" type="veh_passenger" depart="1343.27" departLane="best" from="-176043804#1" to="237209664"/>
    <trip id="veh117" type="veh_passenger" depart="1354.85" departLane="best" departSpeed="max" from="-32858408" to="291670881#3"/>
    <trip id="veh118" type="veh_passenger" depart="1366.43" departLane="best" from="315214529#10" to="-312651888#1"/>
    <trip id="veh119" type="veh_passenger" depart="1378.01" departLane="best" from="291670881#4" to="-437325051#1"/>
    <trip id="veh120" type="veh_passenger" depart="1389.59" departLane="best" from="443435388#0" to="-172078325#7"/>
    <trip id="veh121" type="veh_passenger" depart="1401.17" departLane="best" from="-60333308#1" to="-441788215"/>
    <trip id="veh122" type="veh_passenger" depart="1412.75" departLane="best" from="291670881#5" to="-437325051#0"/>
    <trip id="veh123" type="veh_passenger" depart="1424.33" departLane="best" departSpeed="max" from="-60333317#1" to="-117611349#1"/>
    <trip id="veh124" type="veh_passenger" depart="1435.91" departLane="best" from="-169719829#11" to="4610356"/>
    <trip id="veh125" type="veh_passenger" depart="1447.49" departLane="best" from="465382940#1" to="225400578#2"/>
    <trip id="veh126" type="veh_passenger" depart="1459.07" departLane="best" from="443401746#0" to="282760689#1"/>
    <trip id="veh127" type="veh_passenger" depart="1470.65" departLane="best" from="-241886108#1" to="-225400578#1"/>
    <trip id="veh128" type="veh_passenger" depart="1482.23" departLane="best" from="-437325051#0" to="465382944#0"/>
    <trip id="veh129" type="veh_passenger" depart="1493.81" departLane="best" departSpeed="max" from="437325047#0" to="4597202#2"/>
    <trip id="veh130" type="veh_passenger" depart="1505.39" departLane="best" from="465376252#1" to="-315214529#10"/>
    <trip id="veh131" type="veh_passenger" depart="1516.97" departLane="best" from="-312651888#2" to="-176043799#2"/>
    <trip id="veh132" type="veh_passenger" depart="1528.55" departLane="best" from="389705411#1" to="4610356"/>
    <trip id="veh133" type="veh_passenger" depart="1540.13" departLane="best" from="-517871368#2" to="291696979#1"/>
    <trip id="veh134" type="veh_passenger" depart="1551.71" departLane="best" departSpeed="max" from="4597199" to="6227658#1"/>
    <trip id="veh135" type="veh_passenger" depart="1563.29" departLane="best" from="437325048#0" to="4610356"/>
    <trip id="veh136" type="veh_passenger" depart="1574.87" departLane="best" from="-4592757#1" to="51167934#4"/>
    <trip id="veh137" type="veh_passenger" depart="1586.45" departLane="best" departSpeed="max" from="437325047#0" to="4597206#0"/>
    <trip id="veh138" type="veh_passenger" depart="1598.03" departLane="best" from="437325048#0" to="-4383280#1"/>
    <trip id="veh139" type="veh_passenger" depart="1609.61" departLane="best" departSpeed="max" from="-291696979#2" to="4396823#1"/>
    <trip id="veh140" type="veh_passenger" depart="1621.19" departLane="best" from="100113767#2" to="-4597206#0"/>
    <trip id="veh141" type="veh_passenger" depart="1632.77" departLane="best" departSpeed="max" from="437325047#0" to="-36689633#0"/>
    <trip id="veh142" type="veh_passenger" depart="1644.35" departLane="best" from="-153692976#0" to="-312651885"/>
    <trip id="veh144" type="veh_passenger" depart="1667.51" departLane="best" from="6227796#2" to="196520271"/>
    <trip id="veh145" type="veh_passenger" depart="1679.09" departLane="best" from="53257010#0" to="-176043807#3"/>
    <trip id="veh146" type="veh_passenger" depart="1690.67" departLane="best" from="6227654#1" to="-297373653#0"/>
    <trip id="veh147" type="veh_passenger" depart="1702.25" departLane="best" from="56680556#1" to="-437325054#1"/>
    <trip id="veh148" type="veh_passenger" depart="1713.83" departLane="best" from="-176043804#1" to="153692991#1"/>
    <trip id="veh149" type="veh_passenger" depart="1725.41" departLane="best" from="315214529#6" to="-4597206#5"/>
    <trip id="veh150" type="veh_passenger" depart="1736.99" departLane="best" departSpeed="max" from="24243107#0" to="176043806#0"/>
    <trip id="veh151" type="veh_passenger" depart="1748.57" departLane="best" from="-465418104#7" to="27779097#0"/>
    <trip id="veh152" type="veh_passenger" depart="1760.15" departLane="best" from="-315214529#10" to="32858408"/>
    <trip id="veh153" type="veh_passenger" depart="1771.73" departLane="best" from="-100113767#1" to="51167934#2"/>
    <trip id="veh154" type="veh_passenger" depart="1783.31" departLane="best" from="32805741#1" to="312651887#0"/>
    <trip id="veh155" type="veh_passenger" depart="1794.89" departLane="best" from="-4597254#1" to="-169719829#0"/>
    <trip id="veh156" type="veh_passenger" depart="1806.47" departLane="best" from="297373653#4" to="-465418104#7"/>
    <trip id="veh157" type="veh_passenger" depart="1818.05" departLane="best" from="315214529#12" to="-4597202#2"/>
    <trip id="veh158" type="veh_passenger" depart="1829.63" departLane="best" departSpeed="max" from="-51167934#4" to="-4597201#1"/>
    <trip id="veh159" type="veh_passenger" depart="1841.21" departLane="best" from="-176043807#9" to="153692976#0"/>
    <trip id="veh160" type="veh_passenger" depart="1852.79" departLane="best" from="53257010#1" to="312651888#1"/>
    <trip id="veh161" type="veh_passenger" depart="1864.37" departLane="best" from="-42091232#2" to="225400578#2"/>
    <trip id="veh162" type="veh_passenger" depart="1875.95" departLane="best" from="-100113767#1" to="-4597199"/>
    <trip id="veh163" type="veh_passenger" depart="1887.53" departLane="best" departSpeed="max" from="-60333317#1" to="278014798#0"/>
    <trip id="veh164" type="veh_passenger" depart="1899.11" departLane="best" departSpeed="max" from="297373653#0" to="169717723#3"/>
    <trip id="veh165" type="veh_passenger" depart="1910.69" departLane="best" from="-73310501#0" to="-315214529#13"/>
    <trip id="veh166" type="veh_passenger" depart="1922.27" departLane="best" from="117611349#1" to="465398529#1"/>
    <trip id="veh167" type="veh_passenger" depart="1933.85" departLane="best" departSpeed="max" from="437325047#0" to="-291696979#0"/>
    <trip id="veh168" type="veh_passenger" depart="1945.43" departLane="best" from="-169719829#8" to="176043807#1"/>
    <trip id="veh169" type="veh_passenger" depart="1957.01" departLane="best" from="4383280#1" to="380240681"/>
    <trip id="veh170" type="veh_passenger" depart="1968.59" departLane="best" departSpeed="max" from="30720544#0" to="-32805741#2"/>
    <trip id="veh171" type="veh_passenger" depart="1980.17" departLane="best" from="-291670881#5" to="-131650081#1"/>
    <trip id="veh172" type="veh_passenger" depart="1991.75" departLane="best" from="-312651887#3" to="169719829#0"/>
    <trip id="veh173" type="veh_passenger" depart="2003.33" departLane="best" from="4592725#2" to="-169719829#11"/>
    <trip id="veh174" type="veh_passenger" depart="2014.91" departLane="best" from="-53257010#3" to="291696979#1"/>
    <trip id="veh175" type="veh_passenger" depart="2026.49" departLane="best" from="-291670881#4" to="318915601#0"/>
    <trip id="veh176" type="veh_passenger" depart="2038.07" departLane="best" from="153692976#0" to="-39350082#0"/>
    <trip id="veh177" type="veh_passenger" depart="2049.65" departLane="best" departSpeed="max" from="297373653#0" to="-111251382#3"/>
    <trip id="veh178" type="veh_passenger" depart="2061.23" departLane="best" from="36689633#2" to="389705415#1"/>
    <trip id="veh179" type="veh_passenger" depart="2072.81" departLane="best" from="-176043804#0" to="153692978#0"/>
    <trip id="veh180" type="veh_passenger" depart="2084.39" departLane="best" departSpeed="max" from="-282760689#4" to="60333308#0"/>
    <trip id="veh181" type="veh_passenger" depart="2095.97" departLane="best" from="165415452#0" to="-153692996#1"/>
    <trip id="veh182" type="veh_passenger" depart="2107.55" departLane="best" from="-312651888#2" to="4592757#2"/>
    <trip id="veh183" type="veh_passenger" depart="2119.13" departLane="best" from="-7917219#3" to="437325054#0"/>
    <trip id="veh184" type="veh_passenger" depart="2130.71" departLane="best" from="176043807#9" to="541295978#1"/>
    <trip id="veh185" type="veh_passenger" depart="2142.29" departLane="best" from="4597254#1" to="291670881#6"/>
    <trip id="veh186" type="veh_passenger" depart="2153.87" departLane="best" from="315214529#12" to="176043799#1"/>
    <trip id="veh187" type="veh_passenger" depart="2165.45" departLane="best" from="4396823#1" to="225400578#2"/>
    <trip id="veh188" type="veh_passenger" depart="2177.03" departLane="best" departSpeed="max" from="131505631#0" to="-437325047#5"/>
    <trip id="veh189" type="veh_passenger" depart="2188.61" departLane="best" from="-312651888#0" to="291696979#1"/>
    <trip id="veh190" type="veh_passenger" depart="2200.19" departLane="best" from="374734384#3" to="176043807#4"/>
    <trip id="veh191" type="veh_passenger" depart="2211.77" departLane="best" from="291670881#1" to="-4396823#0"/>
    <trip id="veh192" type="veh_passenger" depart="2223.35" departLane="best" from="-169719829#3" to="-4592757#1"/>
    <trip id="veh193" type="veh_passenger" depart="2234.93" departLane="best" departSpeed="max" from="-32858408" to="-4610375"/>
    <trip id="veh194" type="veh_passenger" depart="2246.51" departLane="best" from="169719829#0" to="-24243107#0"/>
    <trip id="veh195" type="veh_passenger" depart="2258.09" departLane="best" from="-297373653#4" to="315214529#7"/>
    <trip id="veh196" type="veh_passenger" depart="2269.67" departLane="best" from="-517871368#2" to="225400578#1"/>
    <trip id="veh197" type="veh_passenger" depart="2281.25" departLane="best" from="-53257010#4" to="-315214529#0"/>
    <trip id="veh198" type="veh_passenger" depart="2292.83" departLane="best" from="-56680556#1" to="465418104#4"/>
    <trip id="veh199" type="veh_passenger" depart="2304.41" departLane="best" from="4592757#0" to="389705415#1"/>
    <trip id="veh200" type="veh_passenger" depart="2315.99" departLane="best" from="-465418104#3" to="-111251382#3"/>
    <trip id="veh201" type="veh_passenger" depart="2327.57" departLane="best" from="-4597206#0" to="380240681"/>
    <trip id="veh202" type="veh_passenger" depart="2339.15" departLane="best" from="4592725#4" to="560370523"/>
    <trip id="veh203" type="veh_passenger" depart="2350.73" departLane="best" from="-560370523" to="374734389#2"/>
    <trip id="veh204" type="veh_passenger" depart="2362.31" departLane="best" from="169719829#2" to="291670881#3"/>
    <trip id="veh205" type="veh_passenger" depart="2373.88" departLane="best" departSpeed="max" from="-291696979#2" to="-315214529#6"/>
    <trip id="veh206" type="veh_passenger" depart="2385.46" departLane="best" from="-6227658#1" to="-131650081#4"/>
    <trip id="veh207" type="veh_passenger" depart="2397.04" departLane="best" departSpeed="max" from="-4592757#2" to="312651888#2"/>
    <trip id="veh208" type="veh_passenger" depart="2408.62" departLane="best" departSpeed="max" from="-51167934#4" to="-291670881#6"/>
    <trip id="veh209" type="veh_passenger" depart="2420.20" departLane="best" from="104590139#4" to="-225400578#1"/>
    <trip id="veh210" type="veh_passenger" depart="2431.78" departLane="best" from="278014798#0" to="-131650081#3"/>
    <trip id="veh211" type="veh_passenger" depart="2443.36" departLane="best" departSpeed="max" from="-465418104#8" to="268002745"/>
    <trip id="veh212" type="veh_passenger" depart="2454.94" departLane="best" from="-153692976#2" to="291696979#1"/>
    <trip id="veh213" type="veh_passenger" depart="2466.52" departLane="best" departSpeed="max" from="-225400578#2" to="169717723#1"/>
    <trip id="veh214" type="veh_passenger" depart="2478.10" departLane="best" from="-168940071#3" to="-73310501#0"/>
    <trip id="veh215" type="veh_passenger" depart="2489.68" departLane="best" departSpeed="max" from="-291696979#2" to="-465418104#4"/>
    <trip id="veh216" type="veh_passenger" depart="2501.26" departLane="best" from="374734384#1" to="-73310501#0"/>
    <trip id="veh217" type="veh_passenger" depart="2512.84" departLane="best" from="36689633#2" to="443435388#0"/>
    <trip id="veh218" type="veh_passenger" depart="2524.42" departLane="best" from="-131650081#3" to="204032443#0"/>
    <trip id="veh219" type="veh_passenger" depart="2536.00" departLane="best" from="7917219#3" to="-53257010#3"/>
    <trip id="veh220" type="veh_passenger" depart="2547.58" departLane="best" from="292424611#1" to="42103020#0"/>
    <trip id="veh221" type="veh_passenger" depart="2559.16" departLane="best" departSpeed="max" from="297373653#0" to="380240681"/>
    <trip id="veh222" type="veh_passenger" depart="2570.74" departLane="best" from="541295978#1" to="-312651887#3"/>
    <trip id="veh223" type="veh_passenger" depart="2582.32" departLane="best" from="-131650081#4" to="-291670881#2"/>
    <trip id="veh224" type="veh_passenger" depart="2593.90" departLane="best" from="-176043807#8" to="312651887#0"/>
    <trip id="veh225" type="veh_passenger" depart="2605.48" departLane="best" from="172078325#7" to="-315214529#5"/>
    <trip id="veh226" type="veh_passenger" depart="2617.06" departLane="best" from="31112516#2" to="389705415#1"/>
    <trip id="veh227" type="veh_passenger" depart="2628.64" departLane="best" from="-27779097#0" to="291670881#4"/>
    <trip id="veh228" type="veh_passenger" depart="2640.22" departLane="best" from="35269774#3" to="-176043807#2"/>
    <trip id="veh229" type="veh_passenger" depart="2651.80" departLane="best" from="4383280#1" to="60333317#1"/>
    <trip id="veh230" type="veh_passenger" depart="2663.38" departLane="best" from="-176043804#1" to="-131650081#2"/>
    <trip id="veh231" type="veh_passenger" depart="2674.96" departLane="best" departSpeed="max" from="56680556#0" to="104590139#2"/>
    <trip id="veh232" type="veh_passenger" depart="2686.54" departLane="best" from="312651888#2" to="-169719829#3"/>
    <trip id="veh233" type="veh_passenger" depart="2698.12" departLane="best" departSpeed="max" from="31112516#0" to="291696979#1"/>
    <trip id="veh234" type="veh_passenger" depart="2709.70" departLane="best" from="4592725#2" to="291670881#1"/>
    <trip id="veh235" type="veh_passenger" depart="2721.28" departLane="best" from="-176043807#5" to="713576589#1"/>
    <trip id="veh236" type="veh_passenger" depart="2732.86" departLane="best" departSpeed="max" from="-60333317#1" to="-6227658#1"/>
    <trip id="veh237" type="veh_passenger" depart="2744.44" departLane="best" from="153692984#3" to="-517871369"/>
    <trip id="veh238" type="veh_passenger" depart="2756.02" departLane="best" from="4592725#2" to="443401746#0"/>
    <trip id="veh239" type="veh_passenger" depart="2767.60" departLane="best" from="-176043804#0" to="60333317#0"/>
    <trip id="veh240" type="veh_passenger" depart="2779.18" departLane="best" from="312651887#0" to="153692991#1"/>
    <trip id="veh241" type="veh_passenger" depart="2790.76" departLane="best" from="318915601#0" to="60333317#1"/>
    <trip id="veh242" type="veh_passenger" depart="2802.34" departLane="best" from="-32805741#2" to="4383280#3"/>
    <trip id="veh243" type="veh_passenger" depart="2813.92" departLane="best" from="-6227658#1" to="374734384#0"/>