<?xml version="1.0" encoding="UTF-8"?>

<!-- generated on Mon Jun  1 12:50:54 2020 by Eclipse SUMO polyconvert Version 1.6.0
<configuration xmlns:xsi="http://www.w3.org/2001/XMLSchema-instance" xsi:noNamespaceSchemaLocation="http://sumo.dlr.de/xsd/polyconvertConfiguration.xsd">

    <input>
        <net-file value="osm.net.xml"/>
        <osm-files value="osm_bbox.osm.xml"/>
        <osm.keep-full-type value="true"/>
        <type-file value="/usr/share/sumo/data/typemap/osmPolyconvert.typ.xml"/>
    </input>

    <output>
        <output-file value="osm.poly.xml"/>
    </output>

    <processing>
        <poi-layer-offset value="5"/>
    </processing>

    <report>
        <verbose value="true"/>
    </report>

</configuration>
-->

<additional xmlns:xsi="http://www.w3.org/2001/XMLSchema-instance" xsi:noNamespaceSchemaLocation="http://sumo.dlr.de/xsd/additional_file.xsd">
    <location netOffset="-389699.93,-5820060.58" convBoundary="-711.68,-4679.73,3425.52,3198.61" origBoundary="13.365448,52.477280,13.423986,52.548335" projParameter="+proj=utm +zone=33 +ellps=WGS84 +datum=WGS84 +units=m +no_defs"/>

    <poly id="100575040" type="leisure.park" color="207,245,201" fill="1" layer="-2.00" shape="1643.736766,561.258669 1642.843400,561.067068 1636.838861,559.631317 1630.887356,558.138758 1637.924440,531.476577 1645.987805,502.733026 1623.027144,496.944315 1624.906242,484.973791 1616.256132,483.607904 1611.030830,485.482048 1606.303612,488.391139 1608.929575,494.475304 1600.982986,497.589392 1594.726074,500.076218 1592.376025,494.497806 1582.123460,499.521433 1583.692669,501.111228 1583.254357,503.379869 1581.225135,504.304005 1580.625391,507.555463 1574.344096,505.580676 1574.612952,504.239390 1562.984850,507.223860 1554.293663,509.508860 1553.534531,511.083588 1549.898036,512.065687 1547.858034,510.975974 1543.940260,497.765459 1544.600140,497.528251 1543.764890,494.453319 1542.128969,489.860555 1530.741197,495.109802 1518.170851,500.897218 1515.022569,502.469390 1512.651536,505.726825 1515.909969,511.251638 1510.617545,514.073232 1511.244783,515.116423 1508.638732,523.375392 1506.166997,531.264167 1504.093491,537.831034 1500.121062,536.216767 1495.698734,539.096939 1513.572656,556.047805 1519.224730,557.502365 1527.123987,559.596925 1533.983948,561.347371 1539.752074,562.832759 1544.749428,564.146102 1550.531362,565.642323 1566.976248,569.906224 1583.628685,574.043167 1600.431322,578.221342 1606.356173,579.736710 1611.680346,581.098504 1617.420793,582.562341 1624.048557,584.251299 1629.086567,585.563824 1635.617868,587.188172 1636.682798,587.464986 1638.540848,580.357707 1643.736766,561.258669"/>
    <poly id="101699694" type="historic.railway" color="128,255,128" fill="0" layer="-1.00" shape="605.136559,1231.937338 618.279132,1214.561815 631.056077,1196.916328"/>
    <poly id="102523431" type="building.commercial" color="255,230,230" fill="1" layer="-1.00" shape="578.234093,1132.546453 559.252517,1123.769266 562.033799,1117.965016 595.322157,1132.842303 601.190226,1135.470490 593.721822,1151.372443 592.673806,1150.939691 583.420498,1147.152202 586.686502,1139.356368 588.042535,1136.877879 581.591921,1133.995698 581.131514,1134.951873 577.794534,1133.524416 578.234093,1132.546453"/>
    <poly id="102523434" type="building.residential" color="255,230,230" fill="1" layer="-1.00" shape="612.953722,1080.458522 611.485002,1079.423166 619.172884,1069.069064 616.505517,1066.936660 614.316761,1070.112586 614.061300,1069.918010 622.270425,1058.595252 626.105623,1061.358033 625.635234,1061.869318 625.089651,1061.447559 624.324984,1062.455056 629.875582,1066.358951 630.782004,1065.014448 634.962825,1068.058815 626.080250,1080.220090 616.091554,1093.897278 611.370376,1100.356981 606.847665,1106.890137 608.858469,1108.191539 606.809191,1111.230811 565.743987,1083.964543 572.216436,1074.494440 577.169760,1077.788511 597.885028,1091.545527 601.219375,1093.763126 609.169369,1082.690959 610.591355,1083.760744 612.953722,1080.458522"/>
    <poly id="102523436" type="building.residential" color="255,230,230" fill="1" layer="-1.00" shape="618.438462,1055.977061 617.431790,1057.390578 620.891734,1059.761165 621.946386,1058.368829 622.270425,1058.595252 614.061300,1069.918010 608.920919,1066.149602 591.649450,1053.439266 583.900644,1047.748598 591.092995,1037.995326 592.545868,1039.231331 593.524657,1037.785049 603.625144,1045.147837 602.506704,1046.419202 609.689306,1051.677474 610.517373,1050.167807 618.438462,1055.977061"/>
    <poly id="102782554" type="building.university" color="255,230,230" fill="1" layer="-1.00" shape="440.544224,1026.393250 453.207037,1031.795399 458.179341,1020.200019 459.871005,1020.885369 460.945611,1018.568947 459.197685,1017.795837 461.409536,1012.627457 448.760501,1007.236105 440.544224,1026.393250"/>
    <poly id="102782562" type="landuse.meadow" color="194,194,130" fill="1" layer="-3.00" shape="315.551527,1102.642678 338.649238,1113.062415 340.716396,1108.409100 317.541020,1098.158013 315.551527,1102.642678"/>
    <poly id="102782563" type="building.yes" color="255,230,230" fill="1" layer="-1.00" shape="525.759952,1009.292492 543.643801,1017.215083 548.057859,1007.045539 530.374933,999.307597 525.759952,1009.292492"/>
    <poly id="104191061" type="landuse.grass" color="194,194,130" fill="1" layer="-3.00" shape="351.377250,639.625054 363.270920,640.648821 364.112430,630.971054 361.691682,630.769466 361.842172,629.007906 352.369222,628.185723 351.377250,639.625054"/>
    <poly id="104191065" type="building.yes" color="255,230,230" fill="1" layer="-1.00" shape="424.367758,815.729895 423.872068,824.186968 449.424503,825.694502 449.927021,817.237280 424.367758,815.729895"/>
    <poly id="104191066" type="building.yes" color="255,230,230" fill="1" layer="-1.00" shape="568.696474,600.665921 579.058293,586.635359 569.003850,579.249305 558.641794,593.268767 568.696474,600.665921"/>
    <poly id="104191068" type="building.yes" color="255,230,230" fill="1" layer="-1.00" shape="591.019310,585.210075 596.493417,577.798777 583.409560,568.188257 577.935211,575.588447 583.952852,580.015973 591.019310,585.210075"/>
    <poly id="104191069" type="landuse.grass" color="194,194,130" fill="1" layer="-3.00" shape="353.336952,623.223279 362.585548,624.028246 362.676649,622.946810 365.410451,623.185881 366.414780,611.690639 354.439136,610.646446 353.336952,623.223279"/>
    <poly id="104191071" type="building.commercial" color="255,230,230" fill="1" layer="-1.00" shape="440.430635,384.270166 433.879261,382.692349 426.720607,380.972377 427.358116,377.319308 427.508753,376.470221 429.883523,362.818860 434.368118,363.942294 435.234188,364.123163 435.314646,363.776398 451.584215,367.706715 469.609486,372.142966 465.265758,390.311810 453.369555,387.384991 444.426458,425.631295 431.489627,422.605472 440.430635,384.270166"/>
    <poly id="104191072" type="building.apartments" color="255,230,230" fill="1" layer="-1.00" shape="366.747216,432.103836 367.795733,419.550473 368.844008,406.985988 382.166127,408.122414 380.865768,420.948491 397.090207,424.990912 399.779579,425.664984 397.443640,439.226472 394.721353,438.597651 392.060372,437.978583 366.747216,432.103836"/>
    <poly id="104191078" type="building.yes" color="255,230,230" fill="1" layer="-1.00" shape="579.058293,586.635359 583.952852,580.015973 577.935211,575.588447 575.787746,578.496390 571.750691,575.526732 569.003850,579.249305 579.058293,586.635359"/>
    <poly id="104287992" type="building.yes" color="255,230,230" fill="1" layer="-1.00" shape="552.596782,595.796709 563.124673,604.017824 566.483387,599.736277 555.955493,591.515154 552.596782,595.796709"/>
    <poly id="104287993" type="building.yes" color="255,230,230" fill="1" layer="-1.00" shape="646.234893,616.510708 654.940510,619.743097 659.082785,608.622783 650.377152,605.390386 646.234893,616.510708"/>
    <poly id="104287994" type="building.yes" color="255,230,230" fill="1" layer="-1.00" shape="669.464139,596.060841 678.642665,589.189853 671.717316,579.986494 662.538782,586.857494 669.464139,596.060841"/>
    <poly id="104287997" type="building.university" color="255,230,230" fill="1" layer="-1.00" shape="711.165094,720.725800 722.692524,721.168858 723.582169,721.193460 724.515222,696.469070 712.098333,696.012529 711.165094,720.725800"/>
    <poly id="104288001" type="building.yes" color="255,230,230" fill="1" layer="-1.00" shape="671.817632,578.404113 679.498289,588.603185 683.309826,585.747059 675.629173,575.547981 671.817632,578.404113"/>
    <poly id="104288005" type="building.yes" color="255,230,230" fill="1" layer="-1.00" shape="655.285785,591.515492 671.713453,579.207641 664.480377,569.599455 648.052443,581.896208 655.285785,591.515492"/>
    <poly id="104288007" type="building.yes" color="255,230,230" fill="1" layer="-1.00" shape="699.229142,714.160545 699.469736,709.748587 693.218115,709.410034 692.977527,713.821993 699.229142,714.160545"/>
    <poly id="104288008" type="building.yes" color="255,230,230" fill="1" layer="-1.00" shape="643.855690,623.618957 652.622907,626.571770 654.749201,620.292639 645.981975,617.339822 643.855690,623.618957"/>
    <poly id="104314730" type="building.yes" color="255,230,230" fill="1" layer="-1.00" shape="497.156223,561.464279 503.448723,551.508530 533.188922,570.215125 521.796638,588.230358 492.063282,569.523680 484.642091,564.860675 471.554985,556.630354 476.647907,548.570932 497.156223,561.464279"/>
    <poly id="104314731" type="building.apartments" color="255,230,230" fill="1" layer="-1.00" shape="355.071793,572.019003 353.585797,589.266973 361.254628,589.840345 364.001267,590.045744 367.937562,590.335713 368.793575,583.116852 368.031544,583.033811 368.518359,578.416000 371.035853,578.693314 370.907625,579.330473 374.914264,579.730146 374.880552,580.042480 380.923325,580.440960 380.720048,584.084291 382.866969,584.180758 383.071496,580.593038 384.559642,580.670910 387.094893,583.251274 386.210797,591.639173 402.662225,592.816672 403.791843,580.851265 407.931407,581.125577 407.861689,581.950594 410.728440,582.064301 412.825200,583.252425 416.158773,576.645639 406.074944,575.825930 355.071793,572.019003"/>
    <poly id="104314732" type="building.yes" color="255,230,230" fill="1" layer="-1.00" shape="508.355909,710.424785 515.944368,711.055832 516.725803,701.713279 509.144113,701.082078 508.355909,710.424785"/>
    <poly id="104314733" type="building.yes" color="255,230,230" fill="1" layer="-1.00" shape="545.852877,526.566540 546.354506,524.418775 553.158877,495.200672 570.073125,499.150299 567.638923,507.739805 562.749702,506.725472 558.726386,523.451573 563.135432,524.543429 561.185606,529.305277 545.852877,526.566540"/>
    <poly id="104314734" type="building.yes" color="255,230,230" fill="1" layer="-1.00" shape="609.842243,529.249967 619.738890,532.922984 616.678074,541.114773 606.788225,537.441611 609.842243,529.249967"/>
    <poly id="104314735" type="building.yes" color="255,230,230" fill="1" layer="-1.00" shape="508.792798,718.104246 512.422220,718.334442 512.869350,711.336206 509.239922,711.106009 508.792798,718.104246"/>
    <poly id="104314736" type="building.yes" color="255,230,230" fill="1" layer="-1.00" shape="481.702062,748.801143 493.161991,753.195517 495.220286,747.830304 486.231911,744.393117 485.865952,745.324926 483.401670,744.389827 481.702062,748.801143"/>
    <poly id="104314738" type="building.yes" color="255,230,230" fill="1" layer="-1.00" shape="614.087873,517.593171 616.722447,510.067463 594.601525,504.865615 590.293322,516.757513 596.105823,518.085020 612.482534,521.980066 614.087873,517.593171"/>
    <poly id="104314739" type="building.yes" color="255,230,230" fill="1" layer="-1.00" shape="508.739491,700.289955 518.606213,701.125860 519.750145,687.669051 509.883395,686.833143 508.739491,700.289955"/>
    <poly id="104393221" type="building.hotel" color="255,230,230" fill="1" layer="-1.00" shape="451.568506,1123.613726 453.056078,1123.068473 457.359430,1113.724771 467.496854,1118.193241 468.222343,1118.466287 466.863029,1121.401121 466.210157,1121.037424 459.794798,1135.157790 460.315797,1135.390911 458.619745,1139.045477 456.273027,1139.409706 448.340481,1135.815388 439.078039,1131.627773 444.192096,1120.307385 451.568506,1123.613726"/>
    <poly id="104393222" type="building.residential" color="255,230,230" fill="1" layer="-1.00" shape="401.904126,1101.493596 402.221059,1100.496112 403.124413,1100.831922 405.809317,1094.974102 406.584292,1095.335050 411.253494,1097.455793 403.124384,1115.342496 397.721669,1112.893267 392.319197,1110.455166 397.193184,1099.629736 401.904126,1101.493596"/>
    <poly id="104393223" type="building.commercial" color="255,230,230" fill="1" layer="-1.00" shape="623.932721,1122.497904 656.520066,1077.902514 678.746754,1094.007347 681.823304,1089.865717 692.522392,1097.604747 686.727854,1105.535009 675.165221,1121.361579 657.807974,1145.107353 623.932721,1122.497904"/>
    <poly id="104393224" type="building.residential" color="255,230,230" fill="1" layer="-1.00" shape="439.578914,1116.749876 445.962369,1102.418772 451.252049,1104.670291 448.853574,1109.987526 444.192096,1120.307385 439.078039,1131.627773 432.201285,1128.510537 429.678174,1127.365364 420.278541,1123.114095 425.242339,1111.752548 438.817288,1117.890868 439.893385,1117.154545 439.578914,1116.749876"/>
    <poly id="104393225" type="building.commercial" color="255,230,230" fill="1" layer="-1.00" shape="433.840083,1092.063803 436.299893,1086.455862 455.719548,1094.777647 453.359765,1100.004990 453.113987,1100.544635 446.950875,1097.778581 446.704598,1098.295983 445.163683,1097.674022 445.458439,1097.200043 439.831886,1094.755791 439.638127,1095.194120 438.143943,1094.537730 438.337202,1094.077156 433.840083,1092.063803"/>
    <poly id="104393226" type="building.residential" color="255,230,230" fill="1" layer="-1.00" shape="405.336091,1062.402704 404.081092,1061.518399 406.442336,1058.171587 413.372212,1063.045781 417.109572,1065.677066 416.920350,1066.015145 419.137007,1067.111552 416.853162,1070.278577 413.746645,1074.587969 402.231826,1066.812203 405.336091,1062.402704"/>
    <poly id="104393227" type="building.residential" color="255,230,230" fill="1" layer="-1.00" shape="483.260991,1128.444343 484.394929,1125.748251 484.997824,1126.001794 495.295493,1130.355448 490.983260,1139.910740 491.503069,1141.301175 499.278365,1144.543001 493.988258,1156.490430 484.533727,1152.206890 476.703966,1148.654733 475.524642,1145.999404 477.002103,1142.583430 477.386941,1142.797352 483.735507,1128.723020 483.260991,1128.444343"/>
    <poly id="104393228" type="building.residential" color="255,230,230" fill="1" layer="-1.00" shape="406.844857,1118.129940 407.258750,1117.219303 403.124384,1115.342496 411.253494,1097.455793 413.018899,1093.565971 413.187270,1093.206104 420.195210,1096.420520 416.658818,1104.556374 417.218885,1107.437016 418.774615,1108.114274 419.252098,1107.013039 421.911133,1108.166284 421.440433,1109.267367 425.552200,1111.044546 425.242339,1111.752548 420.278541,1123.114095 416.000244,1121.173742 415.586350,1122.084379 412.672604,1120.769938 413.086498,1119.859301 411.502640,1119.138165 410.076538,1118.491383 409.669428,1119.401868 406.844857,1118.129940"/>
    <poly id="104393229" type="building.residential" color="255,230,230" fill="1" layer="-1.00" shape="389.150453,1085.388736 392.405961,1080.764406 395.661476,1076.140078 404.934997,1082.931258 401.377651,1088.319042 403.468711,1089.262472 401.230786,1092.962606 398.116814,1091.496880 396.758535,1090.848578 389.150453,1085.388736"/>
    <poly id="104393230" type="building.hotel" color="255,230,230" fill="1" layer="-1.00" shape="376.543079,1103.309258 380.351111,1097.904698 379.861522,1097.559603 386.589361,1087.994486 387.078950,1088.339582 389.150453,1085.388736 396.758535,1090.848578 398.116814,1091.496880 394.675252,1097.204774 394.996012,1097.587044 394.681660,1098.094849 397.193184,1099.629736 392.319197,1110.455166 388.088858,1108.536015 387.843337,1109.086787 380.849957,1105.916600 381.095477,1105.365829 376.543079,1103.309258"/>
    <poly id="104393230#1" type="tourism.hotel" color="207,245,201" fill="1" layer="-2.00" shape="376.543079,1103.309258 380.351111,1097.904698 379.861522,1097.559603 386.589361,1087.994486 387.078950,1088.339582 389.150453,1085.388736 396.758535,1090.848578 398.116814,1091.496880 394.675252,1097.204774 394.996012,1097.587044 394.681660,1098.094849 397.193184,1099.629736 392.319197,1110.455166 388.088858,1108.536015 387.843337,1109.086787 380.849957,1105.916600 381.095477,1105.365829 376.543079,1103.309258"/>
    <poly id="104393231" type="building.residential" color="255,230,230" fill="1" layer="-1.00" shape="402.231826,1066.812203 413.746645,1074.587969 419.505555,1079.299282 417.358410,1084.021122 409.556379,1078.688007 410.555748,1076.951904 409.398462,1076.187810 404.934997,1082.931258 395.661476,1076.140078 398.950164,1071.481624 402.231826,1066.812203"/>
    <poly id="104393232" type="building.kindergarten" color="255,230,230" fill="1" layer="-1.00" shape="496.659165,1104.920249 494.032119,1111.244083 492.024479,1110.387765 474.474442,1102.813969 470.657852,1101.185916 473.422531,1094.948003 476.761815,1096.475489 479.373192,1090.663872 485.644323,1093.405289 485.905964,1092.664990 487.290555,1092.066419 490.776819,1093.490467 491.341869,1094.779739 490.853594,1095.703164 497.300573,1098.418395 494.833917,1104.026456 496.659165,1104.920249"/>
    <poly id="104393233" type="building.residential" color="255,230,230" fill="1" layer="-1.00" shape="627.302727,1138.123626 624.444556,1142.316039 623.503543,1146.053780 612.535423,1140.846920 610.395451,1139.837732 620.695830,1124.629047 621.391879,1125.103073 623.230387,1122.046273 623.932721,1122.497904 657.807974,1145.107353 653.132783,1151.499220 648.457604,1157.891093 636.351106,1152.153292 640.156828,1146.938166 639.947608,1146.686915 643.333426,1142.115477 636.958247,1137.751548 636.754950,1138.067678 633.764036,1136.031535 633.989675,1135.803926 630.116829,1133.175516 626.971412,1137.875110 627.302727,1138.123626"/>
    <poly id="104393234" type="building.residential" color="255,230,230" fill="1" layer="-1.00" shape="634.742395,1154.259084 633.200776,1153.603698 631.159370,1154.873476 624.402382,1151.642016 623.570261,1152.061256 621.662413,1151.113629 621.907958,1150.562870 623.839647,1146.213166 636.351106,1152.153292 648.457604,1157.891093 643.980197,1164.022602 639.496019,1170.154268 632.231779,1164.575083 622.275370,1162.116343 616.351863,1160.646658 618.600765,1155.310605 623.692351,1157.511105 623.890913,1156.983654 631.671103,1158.934759 633.634382,1156.298021 633.297531,1156.105268 634.742395,1154.259084"/>
    <poly id="104393529" type="building.yes" color="255,230,230" fill="1" layer="-1.00" shape="842.254003,462.268333 818.518454,456.489544 814.422583,473.350556 812.979516,479.235989 816.891291,481.463088 818.623490,479.098671 819.969599,473.126386 830.500356,475.717391 827.761269,487.084362 833.243098,491.535296 839.253716,474.097370 842.254003,462.268333"/>
    <poly id="104393530" type="building.yes" color="255,230,230" fill="1" layer="-1.00" shape="780.352339,501.364170 784.350716,485.006050 790.167920,486.545108 794.064430,468.664782 798.106780,451.537883 784.894433,448.317000 779.462060,446.991894 775.931592,461.815056 775.633575,463.056896 780.916685,464.385335 784.745858,465.345699 787.455748,466.030650 785.313106,474.624640 785.020131,475.788473 784.453288,478.060073 777.916230,476.503739 776.169346,476.086575 767.462554,474.022399 766.990015,475.958061 766.082528,475.744678 765.297650,475.550809 763.564332,475.133345 759.651965,491.389410 763.174852,492.312098 762.056004,496.910610 780.352339,501.364170"/>
    <poly id="104393531" type="building.yes" color="255,230,230" fill="1" layer="-1.00" shape="762.321490,543.974843 763.987293,546.229886 758.207228,550.899288 757.200749,549.597607 753.423558,552.475161 720.345306,509.828369 723.806094,507.369596 731.189051,502.141287 733.714501,505.200535 739.783708,512.542554 746.638028,507.348351 744.977429,505.326878 750.867321,506.474793 754.571870,507.326644 797.639712,517.457675 762.321490,543.974843"/>
    <poly id="104393532" type="building.yes" color="255,230,230" fill="1" layer="-1.00" shape="829.505326,501.644907 868.947626,475.892916 870.322395,469.074303 842.254003,462.268333 839.253716,474.097370 854.510577,477.695552 833.243098,491.535296 827.795035,499.524370 829.505326,501.644907"/>
    <poly id="104393533" type="building.yes" color="255,230,230" fill="1" layer="-1.00" shape="713.514847,469.988260 701.924282,467.054010 698.282471,483.259564 685.261825,480.112554 690.336440,461.816291 683.140847,459.952119 699.226518,427.488637 720.710211,432.716352 717.590620,446.784811 703.818180,443.409763 700.386336,457.474096 716.015423,461.319458 713.514847,469.988260"/>
    <poly id="104393534" type="building.yes" color="255,230,230" fill="1" layer="-1.00" shape="818.518454,456.489544 798.106780,451.537883 794.064430,468.664782 799.901642,469.580253 801.073491,465.225375 809.475254,467.307558 806.763096,478.662813 805.984755,478.457663 804.794972,483.224665 796.582617,481.416448 795.291060,487.398648 801.200993,488.835495 799.201616,497.159211 798.136442,502.034706 801.275186,502.776840 802.690571,498.082685 805.497998,491.899676 807.996756,487.392724 810.588048,483.684900 812.979516,479.235989 814.422583,473.350556 818.518454,456.489544"/>
    <poly id="104395559" type="building.apartments" color="255,230,230" fill="1" layer="-1.00" shape="1261.093271,1353.052157 1269.575364,1296.356904 1280.014235,1297.960491 1278.805168,1305.832426 1279.710991,1305.979169 1280.473633,1306.095718 1279.863432,1310.081886 1278.201999,1309.829566 1275.950517,1324.523726 1276.971891,1324.679022 1277.611946,1324.776045 1277.001750,1328.762214 1275.340323,1328.509895 1273.094405,1343.148295 1274.040918,1343.294130 1274.755828,1343.400613 1274.145638,1347.386782 1272.484217,1347.134464 1271.328792,1354.671378 1261.093271,1353.052157"/>
    <poly id="104395560" type="building.apartments" color="255,230,230" fill="1" layer="-1.00" shape="1181.697242,1341.223220 1190.262006,1284.014084 1200.481902,1285.533362 1199.288755,1293.505116 1200.180522,1293.629902 1201.038623,1293.766566 1200.436506,1297.808204 1198.761498,1297.556214 1196.540598,1312.394396 1197.609706,1312.559740 1198.406263,1312.675520 1197.809943,1316.672519 1196.039486,1316.400402 1193.848802,1331.070998 1194.747594,1331.206754 1195.612223,1331.332144 1194.998287,1335.451941 1193.309726,1335.200254 1192.175757,1342.781223 1181.697242,1341.223220"/>
    <poly id="104395561" type="building.apartments" color="255,230,230" fill="1" layer="-1.00" shape="1401.237730,1192.832275 1402.903877,1187.498447 1402.256530,1187.379314 1402.654414,1186.046272 1401.889531,1185.829605 1402.988862,1182.166407 1403.753746,1182.383074 1404.087513,1181.218373 1404.654455,1181.383805 1406.670666,1175.007319 1417.177619,1179.358223 1414.665372,1187.537290 1412.058069,1196.018919 1401.237730,1192.832275"/>
    <poly id="104395562" type="building.apartments" color="255,230,230" fill="1" layer="-1.00" shape="1162.127711,1001.864615 1168.588263,991.805845 1178.749750,998.289344 1172.252544,1008.226513 1162.127711,1001.864615"/>
    <poly id="104395565" type="building.yes" color="255,230,230" fill="1" layer="-1.00" shape="1314.923417,1367.821663 1316.476245,1357.404975 1354.628940,1363.265735 1353.067024,1373.582461 1344.841871,1372.341178 1314.923417,1367.821663"/>
    <poly id="104395566" type="building.residential" color="255,230,230" fill="1" layer="-1.00" shape="1457.318567,1215.988089 1459.203664,1206.153840 1459.747780,1206.208509 1472.004366,1208.372991 1470.043397,1218.153283 1457.318567,1215.988089"/>
    <poly id="104395567" type="building.yes" color="255,230,230" fill="1" layer="-1.00" shape="1240.193291,1257.452490 1253.249776,1229.720799 1275.029716,1239.907149 1261.843772,1267.619407 1240.193291,1257.452490"/>
    <poly id="104395567#1" type="leisure.sports_centre" color="207,245,201" fill="1" layer="-2.00" shape="1240.193291,1257.452490 1253.249776,1229.720799 1275.029716,1239.907149 1261.843772,1267.619407 1240.193291,1257.452490"/>
    <poly id="104395567#2" type="sport.multi" color="79,230,125" fill="1" layer="-2.00" shape="1240.193291,1257.452490 1253.249776,1229.720799 1275.029716,1239.907149 1261.843772,1267.619407 1240.193291,1257.452490"/>
    <poly id="104395568" type="building.apartments" color="255,230,230" fill="1" layer="-1.00" shape="1231.736982,1348.798813 1221.427319,1347.203581 1229.951246,1290.273631 1240.317021,1291.945529 1239.122076,1299.839417 1240.027655,1299.975030 1240.790299,1300.091573 1240.187159,1304.088717 1238.518938,1303.836562 1236.295445,1318.563503 1237.269096,1318.708727 1237.963662,1318.815658 1237.360528,1322.812803 1235.692313,1322.560649 1233.481662,1337.253924 1234.305345,1337.369105 1235.142842,1337.495106 1234.546496,1341.492100 1232.878535,1341.251069 1231.736982,1348.798813"/>
    <poly id="104395571" type="building.yes" color="255,230,230" fill="1" layer="-1.00" shape="1280.095760,1362.565950 1281.676142,1352.170891 1300.847211,1355.238087 1299.385658,1365.485833 1289.880376,1364.050591 1280.095760,1362.565950"/>
    <poly id="104395572" type="building.apartments" color="255,230,230" fill="1" layer="-1.00" shape="1241.784489,1016.925767 1232.394366,1009.723914 1234.395502,1006.941928 1233.464163,1006.261632 1236.341946,1002.313967 1237.273285,1002.994264 1241.506045,997.113588 1240.705569,996.519397 1243.695457,992.424580 1244.495686,993.007650 1248.550768,987.375747 1247.778167,986.814316 1250.550414,983.002544 1251.323016,983.563975 1253.775524,980.326837 1263.416551,987.823591 1241.784489,1016.925767"/>
    <poly id="104665576" type="building.apartments" color="255,230,230" fill="1" layer="-1.00" shape="393.092017,467.310377 387.440622,466.513621 385.099706,480.153123 390.522429,481.044030 388.667894,491.556849 387.846139,496.070897 390.975180,496.679455 390.762707,497.796997 393.584723,498.334555 392.373936,505.171901 398.585117,509.138627 399.384986,504.858755 400.699402,504.150463 405.244273,504.638233 408.080979,492.523242 409.350128,487.075557 398.093671,485.124890 400.681882,471.312929 412.422184,473.953792 415.475404,460.899219 394.997600,456.651754 393.092017,467.310377"/>
    <poly id="104665577" type="building.apartments" color="255,230,230" fill="1" layer="-1.00" shape="394.997600,456.651754 393.092017,467.310377 387.440622,466.513621 375.055434,464.777512 373.203146,482.645718 362.386700,481.853666 364.172027,462.818547 365.370566,449.994749 394.997600,456.651754"/>
    <poly id="104952885" type="building.commercial" color="255,230,230" fill="1" layer="-1.00" shape="775.268005,1302.283270 805.321771,1315.231301 800.161818,1326.952917 780.010473,1318.312356 773.284588,1328.589050 777.904984,1331.579184 782.534147,1334.658147 793.299270,1341.739364 763.378498,1388.410737 754.979986,1399.748639 723.798143,1380.650295 730.999009,1369.773126 738.285656,1358.482322 762.704596,1321.292307 767.382680,1314.121537 775.268005,1302.283270"/>
    <poly id="104991245" type="building.yes" color="255,230,230" fill="1" layer="-1.00" shape="1334.304732,328.255900 1347.107457,324.054106 1348.971383,329.732248 1349.409381,329.588972 1354.840748,346.126227 1355.669748,345.862976 1359.812213,358.467467 1358.943005,358.753867 1364.382086,375.335471 1350.649472,379.836104 1347.860887,371.340983 1347.268097,371.543342 1344.355760,362.672636 1344.948551,362.470277 1341.351482,351.500554 1340.805683,351.679613 1337.929472,342.908256 1338.542618,342.705443 1337.115676,338.364026 1335.754243,334.221451 1336.205561,334.066749 1334.304732,328.255900"/>
    <poly id="104991246" type="building.yes" color="255,230,230" fill="1" layer="-1.00" shape="1237.469163,372.207071 1236.186640,368.563507 1251.406434,363.183731 1252.700534,366.738019 1237.469163,372.207071"/>
    <poly id="105154993" type="building.supermarket" color="255,230,230" fill="1" layer="-1.00" shape="1568.244283,1401.046335 1569.070454,1388.442611 1569.667251,1379.260170 1564.033443,1379.196135 1558.256952,1379.124149 1553.009756,1379.051539 1546.438951,1378.963828 1541.286958,1378.900243 1536.236705,1378.834403 1524.024812,1378.660633 1523.563344,1378.659759 1515.665137,1376.554097 1528.017310,1335.396621 1536.183203,1337.941464 1540.663997,1338.031084 1560.418371,1338.037356 1572.999704,1338.036101 1576.039844,1338.035347 1582.698382,1338.098895 1602.015083,1338.259714 1622.030647,1338.416222 1621.039153,1344.191227 1610.161781,1344.221293 1610.049435,1353.526501 1618.065230,1353.593345 1615.806355,1358.828978 1613.519120,1364.009604 1604.434147,1364.077784 1604.296442,1370.100900 1610.813240,1370.201015 1610.317397,1371.402682 1607.914013,1376.852953 1604.141864,1376.892198 1604.167582,1379.272943 1599.165799,1379.250473 1591.753948,1379.181377 1585.081900,1379.118119 1584.704249,1389.308306 1584.241829,1401.792672 1583.365635,1401.756492 1578.610385,1401.528271 1568.244283,1401.046335"/>