<?xml version="1.0" encoding="UTF-8"?>

<!-- generated on 06/08/21 00:25:11 by Eclipse SUMO netconvert Version 1.8.0
<configuration xmlns:xsi="http://www.w3.org/2001/XMLSchema-instance" xsi:noNamespaceSchemaLocation="http://sumo.dlr.de/xsd/netconvertConfiguration.xsd">

    <input>
        <type-files value="C:\Program%20Files%20(x86)\Eclipse\Sumo\data\typemap\osmNetconvert.typ.xml"/>
        <osm-files value="osm_bbox.osm.xml"/>
    </input>

    <output>
        <output-file value="osm.net.xml"/>
        <output.street-names value="true"/>
        <output.original-names value="true"/>
    </output>

    <projection>
        <proj.utm value="true"/>
    </projection>

    <processing>
        <geometry.remove value="true"/>
        <roundabouts.guess value="true"/>
        <lefthand value="true"/>
    </processing>

    <tls_building>
        <tls.discard-simple value="true"/>
        <tls.join value="true"/>
        <tls.guess-signals value="true"/>
        <tls.default-type value="actuated"/>
    </tls_building>

    <ramp_guessing>
        <ramps.guess value="true"/>
    </ramp_guessing>

    <junctions>
        <junctions.join value="true"/>
        <junctions.corner-detail value="5"/>
    </junctions>

    <report>
        <verbose value="true"/>
        <aggregate-warnings value="5"/>
    </report>

</configuration>
-->

<net version="1.6" junctionCornerDetail="5" lefthand="true" limitTurnSpeed="5.50" xmlns:xsi="http://www.w3.org/2001/XMLSchema-instance" xsi:noNamespaceSchemaLocation="http://sumo.dlr.de/xsd/net_file.xsd">

    <location netOffset="-566773.21,-3871875.60" convBoundary="0.00,-0.00,3517.39,4653.08" origBoundary="135.731773,34.987123,135.770376,35.029055" projParameter="+proj=utm +zone=53 +ellps=WGS84 +datum=WGS84 +units=m +no_defs"/>

    <type id="highway.bridleway" priority="1" numLanes="1" speed="2.78" allow="pedestrian" oneway="1" width="2.00"/>
    <type id="highway.bus_guideway" priority="1" numLanes="1" speed="27.78" allow="bus" oneway="1"/>
    <type id="highway.cycleway" priority="1" numLanes="1" speed="8.33" allow="bicycle" oneway="0" width="1.00"/>
    <type id="highway.footway" priority="1" numLanes="1" speed="2.78" allow="pedestrian" oneway="1" width="2.00"/>
    <type id="highway.ford" priority="1" numLanes="1" speed="2.78" allow="army" oneway="0"/>
    <type id="highway.living_street" priority="2" numLanes="1" speed="2.78" disallow="tram rail_urban rail rail_electric rail_fast ship" oneway="0"/>
    <type id="highway.motorway" priority="14" numLanes="2" speed="39.44" allow="private emergency authority army vip passenger hov taxi bus coach delivery truck trailer motorcycle evehicle custom1 custom2" oneway="1"/>
    <type id="highway.motorway_link" priority="9" numLanes="1" speed="22.22" allow="private emergency authority army vip passenger hov taxi bus coach delivery truck trailer motorcycle evehicle custom1 custom2" oneway="1"/>
    <type id="highway.path" priority="1" numLanes="1" speed="2.78" allow="pedestrian bicycle" oneway="0" width="2.00"/>
    <type id="highway.pedestrian" priority="1" numLanes="1" speed="2.78" allow="pedestrian" oneway="1" width="2.00"/>
    <type id="highway.primary" priority="12" numLanes="2" speed="27.78" disallow="tram rail_urban rail rail_electric rail_fast ship" oneway="0"/>
    <type id="highway.primary_link" priority="7" numLanes="1" speed="22.22" disallow="tram rail_urban rail rail_electric rail_fast ship" oneway="0"/>
    <type id="highway.raceway" priority="15" numLanes="2" speed="83.33" allow="vip" oneway="0"/>
    <type id="highway.residential" priority="3" numLanes="1" speed="13.89" disallow="tram rail_urban rail rail_electric rail_fast ship" oneway="0"/>
    <type id="highway.secondary" priority="11" numLanes="1" speed="27.78" disallow="tram rail_urban rail rail_electric rail_fast ship" oneway="0"/>
    <type id="highway.secondary_link" priority="6" numLanes="1" speed="22.22" disallow="tram rail_urban rail rail_electric rail_fast ship" oneway="0"/>
    <type id="highway.service" priority="1" numLanes="1" speed="5.56" allow="pedestrian delivery bicycle" oneway="0"/>
    <type id="highway.stairs" priority="1" numLanes="1" speed="1.39" allow="pedestrian" oneway="1" width="2.00"/>
    <type id="highway.step" priority="1" numLanes="1" speed="1.39" allow="pedestrian" oneway="1" width="2.00"/>
    <type id="highway.steps" priority="1" numLanes="1" speed="1.39" allow="pedestrian" oneway="1" width="2.00"/>
    <type id="highway.tertiary" priority="10" numLanes="1" speed="22.22" disallow="tram rail_urban rail rail_electric rail_fast ship" oneway="0"/>
    <type id="highway.tertiary_link" priority="5" numLanes="1" speed="22.22" disallow="tram rail_urban rail rail_electric rail_fast ship" oneway="0"/>
    <type id="highway.track" priority="1" numLanes="1" speed="5.56" allow="pedestrian motorcycle moped bicycle" oneway="0"/>
    <type id="highway.trunk" priority="13" numLanes="2" speed="27.78" disallow="pedestrian bicycle tram rail_urban rail rail_electric rail_fast ship" oneway="0"/>
    <type id="highway.trunk_link" priority="8" numLanes="1" speed="22.22" disallow="pedestrian bicycle tram rail_urban rail rail_electric rail_fast ship" oneway="0"/>
    <type id="highway.unclassified" priority="4" numLanes="1" speed="13.89" disallow="tram rail_urban rail rail_electric rail_fast ship" oneway="0"/>
    <type id="highway.unsurfaced" priority="1" numLanes="1" speed="8.33" disallow="tram rail_urban rail rail_electric rail_fast ship" oneway="0"/>
    <type id="railway.highspeed" priority="21" numLanes="1" speed="69.44" allow="rail_fast" oneway="1"/>
    <type id="railway.light_rail" priority="19" numLanes="1" speed="27.78" allow="rail_urban" oneway="1"/>
    <type id="railway.preserved" priority="16" numLanes="1" speed="27.78" allow="rail" oneway="1"/>
    <type id="railway.rail" priority="20" numLanes="1" speed="44.44" allow="rail" oneway="1"/>
    <type id="railway.subway" priority="18" numLanes="1" speed="27.78" allow="rail_urban" oneway="1"/>
    <type id="railway.tram" priority="17" numLanes="1" speed="13.89" allow="tram" oneway="1"/>

    <edge id=":1193907863_0" function="internal">
        <lane id=":1193907863_0_0" index="0" disallow="tram rail_urban rail rail_electric rail_fast ship" speed="27.78" length="10.87" shape="1758.53,1823.33 1747.70,1823.37"/>
        <lane id=":1193907863_0_1" index="1" disallow="tram rail_urban rail rail_electric rail_fast ship" speed="27.78" length="10.87" shape="1758.58,1826.52 1747.67,1826.57"/>
    </edge>
    <edge id=":1193907863_2" function="internal">
        <lane id=":1193907863_2_0" index="0" disallow="tram rail_urban rail rail_electric rail_fast ship" speed="5.69" length="6.49" shape="1753.15,1828.93 1752.79,1827.92 1751.75,1827.18 1750.05,1826.73 1747.67,1826.57"/>
    </edge>
    <edge id=":1193907871_0" function="internal">
        <lane id=":1193907871_0_0" index="0" disallow="tram rail_urban rail rail_electric rail_fast ship" speed="6.48" length="9.03" shape="1757.11,1976.81 1757.47,1974.36 1758.53,1972.62 1760.29,1971.59 1762.75,1971.28"/>
    </edge>
    <edge id=":1193907871_1" function="internal">
        <lane id=":1193907871_1_0" index="0" disallow="tram rail_urban rail rail_electric rail_fast ship" speed="13.89" length="11.28" shape="1757.11,1976.81 1756.97,1965.53"/>
    </edge>
    <edge id=":1193907871_2" function="internal">
        <lane id=":1193907871_2_0" index="0" disallow="tram rail_urban rail rail_electric rail_fast ship" speed="13.89" length="11.28" shape="1751.47,1971.13 1762.75,1971.28"/>
    </edge>
    <edge id=":1193907871_3" function="internal">
        <lane id=":1193907871_3_0" index="0" disallow="tram rail_urban rail rail_electric rail_fast ship" speed="6.43" length="4.23" shape="1751.47,1971.13 1753.94,1970.81 1755.43,1969.91"/>
    </edge>
    <edge id=":1193907871_4" function="internal">
        <lane id=":1193907871_4_0" index="0" disallow="tram rail_urban rail rail_electric rail_fast ship" speed="6.43" length="4.81" shape="1755.43,1969.91 1755.68,1969.76 1756.69,1968.00 1756.97,1965.53"/>
    </edge>
    <edge id=":1321510215_0" function="internal">
        <lane id=":1321510215_0_0" index="0" disallow="tram rail_urban rail rail_electric rail_fast ship" speed="13.89" length="6.53" shape="1920.58,1040.12 1920.63,1038.18 1920.75,1036.86 1920.96,1035.55 1921.32,1033.64"/>
    </edge>
    <edge id=":1321510348_0" function="internal">
        <lane id=":1321510348_0_0" index="0" disallow="tram rail_urban rail rail_electric rail_fast ship" speed="8.05" length="14.20" shape="2139.76,2109.45 2135.65,2108.87 2132.72,2107.29 2130.97,2104.73 2130.39,2101.16"/>
    </edge>
    <edge id=":1321510348_1" function="internal">
        <lane id=":1321510348_1_0" index="0" disallow="tram rail_urban rail rail_electric rail_fast ship" speed="13.89" length="16.08" shape="2139.76,2109.45 2123.69,2109.13"/>
    </edge>
    <edge id=":1321510348_2" function="internal">
        <lane id=":1321510348_2_0" index="0" disallow="tram rail_urban rail rail_electric rail_fast ship" speed="18.06" length="14.06" shape="2132.92,2114.95 2132.54,2111.39 2131.66,2108.06 2130.79,2104.72 2130.39,2101.16"/>
    </edge>
    <edge id=":1321510348_3" function="internal">
        <lane id=":1321510348_3_0" index="0" disallow="tram rail_urban rail rail_electric rail_fast ship" speed="7.50" length="12.20" shape="2132.92,2114.95 2132.36,2112.48 2130.63,2110.68 2127.74,2109.57 2123.69,2109.13"/>
    </edge>
    <edge id=":1321510348_4" function="internal">
        <lane id=":1321510348_4_0" index="0" disallow="tram rail_urban rail rail_electric rail_fast ship" speed="6.01" length="7.66" shape="2127.18,2103.27 2126.96,2105.86 2126.30,2107.70 2125.21,2108.79 2123.69,2109.13"/>
    </edge>
    <edge id=":1435033889_0" function="internal">
        <lane id=":1435033889_0_0" index="0" disallow="tram rail_urban rail rail_electric rail_fast ship" speed="13.89" length="4.97" shape="2182.03,1704.16 2177.06,1704.15"/>
    </edge>
    <edge id=":1694667017_0" function="internal">
        <lane id=":1694667017_0_0" index="0" disallow="tram rail_urban rail rail_electric rail_fast ship" speed="3.65" length="4.67" shape="1677.03,2537.81 1675.81,2538.59 1675.39,2539.38 1675.78,2540.19 1676.96,2541.01"/>
    </edge>
    <edge id=":1694667020_0" function="internal">
        <lane id=":1694667020_0_0" index="0" disallow="tram rail_urban rail rail_electric rail_fast ship" speed="13.89" length="14.40" shape="1702.55,2547.07 1702.51,2532.67"/>
    </edge>
    <edge id=":1694667020_1" function="internal">
        <lane id=":1694667020_1_0" index="0" disallow="tram rail_urban rail rail_electric rail_fast ship" speed="8.09" length="5.88" shape="1702.55,2547.07 1701.99,2543.26 1700.94,2541.53"/>
    </edge>
    <edge id=":1694667020_2" function="internal">
        <lane id=":1694667020_2_0" index="0" disallow="tram rail_urban rail rail_electric rail_fast ship" speed="3.65" length="2.34" shape="1702.55,2547.07 1701.75,2545.88 1700.95,2545.48"/>
    </edge>
    <edge id=":1694667020_9" function="internal">
        <lane id=":1694667020_9_0" index="0" disallow="tram rail_urban rail rail_electric rail_fast ship" speed="8.09" length="8.35" shape="1700.94,2541.53 1700.33,2540.51 1697.56,2538.82 1693.69,2538.19"/>
    </edge>
    <edge id=":1694667020_10" function="internal">
        <lane id=":1694667020_10_0" index="0" disallow="tram rail_urban rail rail_electric rail_fast ship" speed="3.65" length="2.34" shape="1700.95,2545.48 1700.15,2545.88 1699.35,2547.08"/>
    </edge>
    <edge id=":1694667020_3" function="internal">
        <lane id=":1694667020_3_0" index="0" disallow="tram rail_urban rail rail_electric rail_fast ship" speed="6.61" length="9.16" shape="1693.62,2541.39 1696.12,2541.80 1697.91,2542.88 1698.99,2544.64 1699.35,2547.08"/>
    </edge>
    <edge id=":1694667020_4" function="internal">
        <lane id=":1694667020_4_0" index="0" disallow="tram rail_urban rail rail_electric rail_fast ship" speed="7.96" length="14.29" shape="1693.62,2541.39 1697.52,2540.92 1700.30,2539.31 1701.97,2536.56 1702.51,2532.67"/>
    </edge>
    <edge id=":1694667020_5" function="internal">
        <lane id=":1694667020_5_0" index="0" disallow="tram rail_urban rail rail_electric rail_fast ship" speed="3.65" length="4.67" shape="1693.62,2541.39 1694.83,2540.62 1695.25,2539.83 1694.87,2539.02 1693.69,2538.19"/>
    </edge>
    <edge id=":1694667020_6" function="internal">
        <lane id=":1694667020_6_0" index="0" disallow="tram rail_urban rail rail_electric rail_fast ship" speed="6.45" length="9.03" shape="1699.31,2532.68 1698.97,2535.14 1697.92,2536.88 1696.16,2537.90 1693.69,2538.19"/>
    </edge>
    <edge id=":1694667020_7" function="internal">
        <lane id=":1694667020_7_0" index="0" disallow="tram rail_urban rail rail_electric rail_fast ship" speed="13.89" length="14.40" shape="1699.31,2532.68 1699.35,2547.08"/>
    </edge>
    <edge id=":1694667020_8" function="internal">
        <lane id=":1694667020_8_0" index="0" disallow="tram rail_urban rail rail_electric rail_fast ship" speed="3.65" length="2.34" shape="1699.31,2532.68 1700.12,2533.88 1700.92,2534.28"/>
    </edge>
    <edge id=":1694667020_11" function="internal">
        <lane id=":1694667020_11_0" index="0" disallow="tram rail_urban rail rail_electric rail_fast ship" speed="3.65" length="2.34" shape="1700.92,2534.28 1701.72,2533.87 1702.51,2532.67"/>
    </edge>
    <edge id=":1694667035_0" function="internal">
        <lane id=":1694667035_0_0" index="0" disallow="tram rail_urban rail rail_electric rail_fast ship" speed="13.89" length="14.34" shape="1553.38,2586.00 1553.20,2600.34"/>
    </edge>
    <edge id=":1694667035_1" function="internal">
        <lane id=":1694667035_1_0" index="0" disallow="tram rail_urban rail rail_electric rail_fast ship" speed="8.00" length="5.86" shape="1553.38,2586.00 1553.91,2589.86 1554.91,2591.55"/>
    </edge>
    <edge id=":1694667035_2" function="internal">
        <lane id=":1694667035_2_0" index="0" disallow="tram rail_urban rail rail_electric rail_fast ship" speed="3.65" length="2.34" shape="1553.38,2586.00 1554.18,2587.21 1554.97,2587.61"/>
    </edge>
    <edge id=":1694667035_9" function="internal">
        <lane id=":1694667035_9_0" index="0" disallow="tram rail_urban rail rail_electric rail_fast ship" speed="8.00" length="8.34" shape="1554.91,2591.55 1555.54,2592.62 1558.29,2594.28 1562.13,2594.85"/>
    </edge>
    <edge id=":1694667035_10" function="internal">
        <lane id=":1694667035_10_0" index="0" disallow="tram rail_urban rail rail_electric rail_fast ship" speed="3.65" length="2.34" shape="1554.97,2587.61 1555.78,2587.22 1556.58,2586.02"/>
    </edge>
    <edge id=":1694667035_3" function="internal">
        <lane id=":1694667035_3_0" index="0" disallow="tram rail_urban rail rail_electric rail_fast ship" speed="6.50" length="9.03" shape="1562.15,2591.65 1559.70,2591.29 1557.96,2590.23 1556.92,2588.48 1556.58,2586.02"/>
    </edge>
    <edge id=":1694667035_4" function="internal">
        <lane id=":1694667035_4_0" index="0" disallow="tram rail_urban rail rail_electric rail_fast ship" speed="8.04" length="14.18" shape="1562.15,2591.65 1558.30,2592.18 1555.52,2593.80 1553.82,2596.52 1553.20,2600.34"/>
    </edge>
    <edge id=":1694667035_5" function="internal">
        <lane id=":1694667035_5_0" index="0" disallow="tram rail_urban rail rail_electric rail_fast ship" speed="3.65" length="4.67" shape="1562.15,2591.65 1560.95,2592.45 1560.54,2593.25 1560.94,2594.05 1562.13,2594.85"/>
    </edge>
    <edge id=":1694667035_6" function="internal">
        <lane id=":1694667035_6_0" index="0" disallow="tram rail_urban rail rail_electric rail_fast ship" speed="6.55" length="9.07" shape="1556.40,2600.40 1556.80,2597.96 1557.89,2596.23 1559.67,2595.19 1562.13,2594.85"/>
    </edge>
    <edge id=":1694667035_7" function="internal">
        <lane id=":1694667035_7_0" index="0" disallow="tram rail_urban rail rail_electric rail_fast ship" speed="13.89" length="14.38" shape="1556.40,2600.40 1556.58,2586.02"/>
    </edge>
    <edge id=":1694667035_8" function="internal">
        <lane id=":1694667035_8_0" index="0" disallow="tram rail_urban rail rail_electric rail_fast ship" speed="3.65" length="2.34" shape="1556.40,2600.40 1555.62,2599.19 1554.83,2598.77"/>
    </edge>
    <edge id=":1694667035_11" function="internal">
        <lane id=":1694667035_11_0" index="0" disallow="tram rail_urban rail rail_electric rail_fast ship" speed="3.65" length="2.34" shape="1554.83,2598.77 1554.02,2599.15 1553.20,2600.34"/>
    </edge>
    <edge id=":1694667036_0" function="internal">
        <lane id=":1694667036_0_0" index="0" disallow="tram rail_urban rail rail_electric rail_fast ship" speed="3.65" length="4.67" shape="1593.70,2595.01 1594.90,2594.21 1595.31,2593.42 1594.91,2592.61 1593.72,2591.81"/>
    </edge>
    <edge id=":1694667049_0" function="internal">
        <lane id=":1694667049_0_0" index="0" disallow="tram rail_urban rail rail_electric rail_fast ship" speed="13.89" length="14.40" shape="1702.73,2607.72 1702.69,2593.33"/>
    </edge>
    <edge id=":1694667049_1" function="internal">
        <lane id=":1694667049_1_0" index="0" disallow="tram rail_urban rail rail_electric rail_fast ship" speed="7.97" length="5.93" shape="1702.73,2607.72 1702.17,2603.85 1701.12,2602.13"/>
    </edge>
    <edge id=":1694667049_2" function="internal">
        <lane id=":1694667049_2_0" index="0" disallow="tram rail_urban rail rail_electric rail_fast ship" speed="3.65" length="2.34" shape="1702.73,2607.72 1701.93,2606.53 1701.13,2606.13"/>
    </edge>
    <edge id=":1694667049_9" function="internal">
        <lane id=":1694667049_9_0" index="0" disallow="tram rail_urban rail rail_electric rail_fast ship" speed="7.97" length="8.32" shape="1701.12,2602.13 1700.49,2601.11 1697.71,2599.50 1693.83,2599.02"/>
    </edge>
    <edge id=":1694667049_10" function="internal">
        <lane id=":1694667049_10_0" index="0" disallow="tram rail_urban rail rail_electric rail_fast ship" speed="3.65" length="2.34" shape="1701.13,2606.13 1700.33,2606.53 1699.53,2607.74"/>
    </edge>
    <edge id=":1694667049_3" function="internal">
        <lane id=":1694667049_3_0" index="0" disallow="tram rail_urban rail rail_electric rail_fast ship" speed="6.47" length="9.03" shape="1693.89,2602.22 1696.35,2602.52 1698.11,2603.54 1699.17,2605.28 1699.53,2607.74"/>
    </edge>
    <edge id=":1694667049_4" function="internal">
        <lane id=":1694667049_4_0" index="0" disallow="tram rail_urban rail rail_electric rail_fast ship" speed="8.05" length="14.21" shape="1693.89,2602.22 1697.75,2601.60 1700.50,2599.91 1702.15,2597.15 1702.69,2593.33"/>
    </edge>
    <edge id=":1694667049_5" function="internal">
        <lane id=":1694667049_5_0" index="0" disallow="tram rail_urban rail rail_electric rail_fast ship" speed="3.65" length="4.67" shape="1693.89,2602.22 1695.08,2601.39 1695.46,2600.59 1695.05,2599.79 1693.83,2599.02"/>
    </edge>
    <edge id=":1694667049_6" function="internal">
        <lane id=":1694667049_6_0" index="0" disallow="tram rail_urban rail rail_electric rail_fast ship" speed="6.57" length="9.11" shape="1699.49,2593.34 1699.14,2595.78 1698.08,2597.54 1696.31,2598.62 1693.83,2599.02"/>
    </edge>
    <edge id=":1694667049_7" function="internal">
        <lane id=":1694667049_7_0" index="0" disallow="tram rail_urban rail rail_electric rail_fast ship" speed="13.89" length="14.40" shape="1699.49,2593.34 1699.53,2607.74"/>
    </edge>
    <edge id=":1694667049_8" function="internal">
        <lane id=":1694667049_8_0" index="0" disallow="tram rail_urban rail rail_electric rail_fast ship" speed="3.65" length="2.34" shape="1699.49,2593.34 1700.29,2594.53 1701.09,2594.93"/>
    </edge>
    <edge id=":1694667049_11" function="internal">
        <lane id=":1694667049_11_0" index="0" disallow="tram rail_urban rail rail_electric rail_fast ship" speed="3.65" length="2.34" shape="1701.09,2594.93 1701.89,2594.53 1702.69,2593.33"/>
    </edge>
    <edge id=":1694667059_0" function="internal">
        <lane id=":1694667059_0_0" index="0" disallow="tram rail_urban rail rail_electric rail_fast ship" speed="3.65" length="4.67" shape="1666.44,2599.53 1665.25,2600.35 1664.87,2601.16 1665.28,2601.95 1666.50,2602.73"/>
    </edge>
    <edge id=":1744290180_0" function="internal">
        <lane id=":1744290180_0_0" index="0" disallow="tram rail_urban rail rail_electric rail_fast ship" speed="22.22" length="14.42" shape="2095.99,1441.01 2081.57,1440.99"/>
    </edge>
    <edge id=":1744290180_1" function="internal">
        <lane id=":1744290180_1_0" index="0" disallow="tram rail_urban rail rail_electric rail_fast ship" speed="8.03" length="5.94" shape="2095.99,1441.01 2092.15,1441.55 2090.38,1442.60"/>
    </edge>
    <edge id=":1744290180_2" function="internal">
        <lane id=":1744290180_2_0" index="0" disallow="tram rail_urban rail rail_electric rail_fast ship" speed="3.65" length="2.34" shape="2095.99,1441.01 2094.79,1441.81 2094.39,1442.61"/>
    </edge>
    <edge id=":1744290180_9" function="internal">
        <lane id=":1744290180_9_0" index="0" disallow="tram rail_urban rail rail_electric rail_fast ship" speed="8.03" length="8.28" shape="2090.38,1442.60 2089.39,1443.19 2087.72,1445.95 2087.12,1449.80"/>
    </edge>
    <edge id=":1744290180_10" function="internal">
        <lane id=":1744290180_10_0" index="0" disallow="tram rail_urban rail rail_electric rail_fast ship" speed="3.65" length="2.34" shape="2094.39,1442.61 2094.78,1443.41 2095.98,1444.21"/>
    </edge>
    <edge id=":1744290180_3" function="internal">
        <lane id=":1744290180_3_0" index="0" disallow="tram rail_urban rail rail_electric rail_fast ship" speed="6.54" length="9.08" shape="2090.32,1449.84 2090.70,1447.37 2091.77,1445.61 2093.53,1444.56 2095.98,1444.21"/>
    </edge>
    <edge id=":1744290180_4" function="internal">
        <lane id=":1744290180_4_0" index="0" disallow="tram rail_urban rail rail_electric rail_fast ship" speed="7.98" length="14.24" shape="2090.32,1449.84 2089.82,1445.97 2088.19,1443.20 2085.44,1441.54 2081.57,1440.99"/>
    </edge>
    <edge id=":1744290180_5" function="internal">
        <lane id=":1744290180_5_0" index="0" disallow="tram rail_urban rail rail_electric rail_fast ship" speed="3.65" length="4.67" shape="2090.32,1449.84 2089.54,1448.63 2088.74,1448.22 2087.94,1448.61 2087.12,1449.80"/>
    </edge>
    <edge id=":1744290180_6" function="internal">
        <lane id=":1744290180_6_0" index="0" disallow="tram rail_urban rail rail_electric rail_fast ship" speed="6.48" length="9.03" shape="2081.57,1444.19 2084.02,1444.54 2085.77,1445.59 2086.80,1447.35 2087.12,1449.80"/>
    </edge>
    <edge id=":1744290180_7" function="internal">
        <lane id=":1744290180_7_0" index="0" disallow="tram rail_urban rail rail_electric rail_fast ship" speed="22.22" length="14.41" shape="2081.57,1444.19 2095.98,1444.21"/>
    </edge>
    <edge id=":1744290180_8" function="internal">
        <lane id=":1744290180_8_0" index="0" disallow="tram rail_urban rail rail_electric rail_fast ship" speed="3.65" length="2.34" shape="2081.57,1444.19 2082.77,1443.39 2083.17,1442.59"/>
    </edge>
    <edge id=":1744290180_11" function="internal">
        <lane id=":1744290180_11_0" index="0" disallow="tram rail_urban rail rail_electric rail_fast ship" speed="3.65" length="2.34" shape="2083.17,1442.59 2082.77,1441.79 2081.57,1440.99"/>
    </edge>
    <edge id=":1744290182_0" function="internal">
        <lane id=":1744290182_0_0" index="0" disallow="tram rail_urban rail rail_electric rail_fast ship" speed="6.78" length="9.87" shape="2599.71,1444.71 2599.24,1447.16 2597.96,1448.90 2595.88,1449.91 2592.99,1450.21"/>
    </edge>
    <edge id=":1744290182_1" function="internal">
        <lane id=":1744290182_1_0" index="0" disallow="tram rail_urban rail rail_electric rail_fast ship" speed="13.89" length="14.87" shape="2599.71,1444.71 2598.52,1459.53"/>
    </edge>
    <edge id=":1744290182_2" function="internal">
        <lane id=":1744290182_2_0" index="0" disallow="tram rail_urban rail rail_electric rail_fast ship" speed="7.99" length="14.22" shape="2599.71,1444.71 2600.17,1448.58 2601.76,1451.37 2604.48,1453.07 2608.33,1453.69"/>
    </edge>
    <edge id=":1744290182_3" function="internal">
        <lane id=":1744290182_3_0" index="0" disallow="tram rail_urban rail rail_electric rail_fast ship" speed="3.65" length="4.67" shape="2599.71,1444.71 2600.48,1445.93 2601.27,1446.35 2602.08,1445.97 2602.91,1444.79"/>
    </edge>
    <edge id=":1744290182_4" function="internal">
        <lane id=":1744290182_4_0" index="0" disallow="tram rail_urban rail rail_electric rail_fast ship" speed="6.49" length="9.03" shape="2608.38,1450.49 2605.94,1450.10 2604.21,1449.02 2603.20,1447.25 2602.91,1444.79"/>
    </edge>
    <edge id=":1744290182_5" function="internal">
        <lane id=":1744290182_5_0" index="0" disallow="tram rail_urban rail rail_electric rail_fast ship" speed="22.22" length="15.39" shape="2608.38,1450.49 2592.99,1450.21"/>
    </edge>
    <edge id=":1744290182_6" function="internal">
        <lane id=":1744290182_6_0" index="0" disallow="tram rail_urban rail rail_electric rail_fast ship" speed="7.97" length="4.93" shape="2608.38,1450.49 2604.94,1451.24 2603.76,1452.01"/>
    </edge>
    <edge id=":1744290182_7" function="internal">
        <lane id=":1744290182_7_0" index="0" disallow="tram rail_urban rail rail_electric rail_fast ship" speed="3.65" length="2.34" shape="2608.38,1450.49 2607.17,1451.27 2606.76,1452.06"/>
    </edge>
    <edge id=":1744290182_16" function="internal">
        <lane id=":1744290182_16_0" index="0" disallow="tram rail_urban rail rail_electric rail_fast ship" speed="7.97" length="9.57" shape="2603.76,1452.01 2601.74,1453.31 2599.39,1456.23 2598.52,1459.53"/>
    </edge>
    <edge id=":1744290182_17" function="internal">
        <lane id=":1744290182_17_0" index="0" disallow="tram rail_urban rail rail_electric rail_fast ship" speed="3.65" length="2.34" shape="2606.76,1452.06 2607.14,1452.87 2608.33,1453.69"/>
    </edge>
    <edge id=":1744290182_8" function="internal">
        <lane id=":1744290182_8_0" index="0" disallow="tram rail_urban rail rail_electric rail_fast ship" speed="6.97" length="10.86" shape="2601.74,1460.44 2602.09,1457.44 2603.30,1455.32 2605.38,1454.07 2608.33,1453.69"/>
    </edge>
    <edge id=":1744290182_9" function="internal">
        <lane id=":1744290182_9_0" index="0" disallow="tram rail_urban rail rail_electric rail_fast ship" speed="13.89" length="15.70" shape="2601.74,1460.44 2601.85,1456.59 2602.23,1452.61 2602.66,1448.64 2602.91,1444.79"/>
    </edge>
    <edge id=":1744290182_10" function="internal">
        <lane id=":1744290182_10_0" index="0" disallow="tram rail_urban rail rail_electric rail_fast ship" speed="8.39" length="15.17" shape="2601.74,1460.44 2601.10,1456.03 2599.43,1452.85 2596.73,1450.91 2592.99,1450.21"/>
    </edge>
    <edge id=":1744290182_11" function="internal">
        <lane id=":1744290182_11_0" index="0" disallow="tram rail_urban rail rail_electric rail_fast ship" speed="3.71" length="4.89" shape="2601.74,1460.44 2601.28,1459.00 2600.58,1458.37 2599.67,1458.55 2598.52,1459.53"/>
    </edge>
    <edge id=":1744290182_12" function="internal">
        <lane id=":1744290182_12_0" index="0" disallow="tram rail_urban rail rail_electric rail_fast ship" speed="6.71" length="9.35" shape="2592.93,1453.41 2595.32,1453.83 2597.05,1454.99 2598.11,1456.89 2598.52,1459.53"/>
    </edge>
    <edge id=":1744290182_13" function="internal">
        <lane id=":1744290182_13_0" index="0" disallow="tram rail_urban rail rail_electric rail_fast ship" speed="22.22" length="15.40" shape="2592.93,1453.41 2608.33,1453.69"/>
    </edge>
    <edge id=":1744290182_14" function="internal">
        <lane id=":1744290182_14_0" index="0" disallow="tram rail_urban rail rail_electric rail_fast ship" speed="8.03" length="5.05" shape="2592.93,1453.41 2596.33,1452.72 2597.68,1451.90"/>
    </edge>
    <edge id=":1744290182_15" function="internal">
        <lane id=":1744290182_15_0" index="0" disallow="tram rail_urban rail rail_electric rail_fast ship" speed="3.65" length="2.34" shape="2592.93,1453.41 2594.15,1452.63 2594.56,1451.84"/>
    </edge>
    <edge id=":1744290182_18" function="internal">
        <lane id=":1744290182_18_0" index="0" disallow="tram rail_urban rail rail_electric rail_fast ship" speed="8.03" length="9.18" shape="2597.68,1451.90 2599.53,1450.78 2601.92,1448.00 2602.91,1444.79"/>
    </edge>
    <edge id=":1744290182_19" function="internal">
        <lane id=":1744290182_19_0" index="0" disallow="tram rail_urban rail rail_electric rail_fast ship" speed="3.65" length="2.34" shape="2594.56,1451.84 2594.18,1451.03 2592.99,1450.21"/>
    </edge>
    <edge id=":1744290200_0" function="internal">
        <lane id=":1744290200_0_0" index="0" disallow="tram rail_urban rail rail_electric rail_fast ship" speed="5.93" length="9.19" shape="2757.32,1451.14 2754.90,1451.51 2753.19,1450.81 2752.18,1449.03 2751.89,1446.19"/>
    </edge>
    <edge id=":1744290200_1" function="internal">
        <lane id=":1744290200_1_0" index="0" disallow="tram rail_urban rail rail_electric rail_fast ship" speed="22.22" length="11.20" shape="2757.32,1451.14 2754.28,1451.90 2751.86,1452.06 2749.39,1451.92 2746.22,1451.81"/>
    </edge>
    <edge id=":1744290200_2" function="internal">
        <lane id=":1744290200_2_0" index="0" disallow="tram rail_urban rail rail_electric rail_fast ship" speed="3.71" length="2.88" shape="2757.32,1451.14 2756.06,1451.99 2755.65,1452.84 2755.85,1453.21"/>
    </edge>
    <edge id=":1744290200_6" function="internal">
        <lane id=":1744290200_6_0" index="0" disallow="tram rail_urban rail rail_electric rail_fast ship" speed="3.71" length="2.02" shape="2755.85,1453.21 2756.08,1453.67 2757.34,1454.50"/>
    </edge>
    <edge id=":1744290200_3" function="internal">