<?xml version="1.0" encoding="UTF-8"?>

<!-- generated on 06/08/21 00:25:17 by Eclipse SUMO polyconvert Version 1.8.0
<configuration xmlns:xsi="http://www.w3.org/2001/XMLSchema-instance" xsi:noNamespaceSchemaLocation="http://sumo.dlr.de/xsd/polyconvertConfiguration.xsd">

    <input>
        <net-file value="osm.net.xml"/>
        <osm-files value="osm_bbox.osm.xml"/>
        <osm.keep-full-type value="true"/>
        <type-file value="C:\Program%20Files%20(x86)\Eclipse\Sumo\data\typemap\osmPolyconvert.typ.xml"/>
    </input>

    <output>
        <output-file value="osm.poly.xml"/>
    </output>

    <processing>
        <poi-layer-offset value="5"/>
    </processing>

    <report>
        <verbose value="true"/>
    </report>

</configuration>
-->

<additional xmlns:xsi="http://www.w3.org/2001/XMLSchema-instance" xsi:noNamespaceSchemaLocation="http://sumo.dlr.de/xsd/additional_file.xsd">
    <location netOffset="-566773.21,-3871875.60" convBoundary="0.00,-0.00,3631.05,4653.08" origBoundary="135.731773,34.987123,135.771569,35.029055" projParameter="+proj=utm +zone=53 +ellps=WGS84 +datum=WGS84 +units=m +no_defs"/>

    <poly id="105022872" type="building.yes" color="255,230,230" fill="1" layer="-1.00" shape="2760.290085,2605.999116 2760.435993,2586.879995 2789.597134,2587.113677 2789.451249,2606.221708 2760.290085,2605.999116"/>
    <poly id="105022872#1" type="tourism.hotel" color="207,245,201" fill="1" layer="-2.00" shape="2760.290085,2605.999116 2760.435993,2586.879995 2789.597134,2587.113677 2789.451249,2606.221708 2760.290085,2605.999116"/>
    <poly id="105022873" type="building.yes" color="255,230,230" fill="1" layer="-1.00" shape="2444.503490,2356.784157 2444.818598,2324.912138 2452.200187,2324.990394 2452.471821,2297.643015 2465.957772,2297.767659 2465.608186,2332.966599 2454.038525,2332.845422 2453.801200,2356.876971 2444.503490,2356.784157"/>
    <poly id="105022873#1" type="tourism.hotel" color="207,245,201" fill="1" layer="-2.00" shape="2444.503490,2356.784157 2444.818598,2324.912138 2452.200187,2324.990394 2452.471821,2297.643015 2465.957772,2297.767659 2465.608186,2332.966599 2454.038525,2332.845422 2453.801200,2356.876971 2444.503490,2356.784157"/>
    <poly id="105022875" type="building.hotel" color="255,230,230" fill="1" layer="-1.00" shape="2479.692774,2315.550467 2479.879239,2301.821708 2487.287968,2301.933471 2487.503229,2286.818605 2491.709494,2286.872759 2491.828898,2278.367168 2508.516935,2278.604940 2508.694168,2266.096079 2523.849378,2266.311133 2523.150924,2316.158119 2479.692774,2315.550467"/>
    <poly id="105022875#1" type="tourism.hotel" color="207,245,201" fill="1" layer="-2.00" shape="2479.692774,2315.550467 2479.879239,2301.821708 2487.287968,2301.933471 2487.503229,2286.818605 2491.709494,2286.872759 2491.828898,2278.367168 2508.516935,2278.604940 2508.694168,2266.096079 2523.849378,2266.311133 2523.150924,2316.158119 2479.692774,2315.550467"/>
    <poly id="162041367" type="landuse.grass" color="194,194,130" fill="1" layer="-3.00" shape="1552.214638,1807.631655 1551.355949,1808.967177 1550.342882,1810.201727 1549.184895,1811.291013 1547.909364,1812.235240 1546.516372,1813.023319 1545.042584,1813.633344 1543.506252,1814.065450 1541.925707,1814.308686 1541.910904,1811.413934 1546.420647,1807.532767 1552.214638,1807.631655"/>
    <poly id="162041368" type="building.yes" color="255,230,230" fill="1" layer="-1.00" shape="1573.691596,1855.703986 1573.780707,1854.773046 1573.924485,1853.853606 1574.132055,1852.945735 1574.394292,1852.049365 1574.701987,1851.175517 1575.073475,1850.313238 1575.490338,1849.484571 1575.961785,1848.678495 1576.487732,1847.906099 1577.050014,1847.156156 1577.666713,1846.450985 1578.319579,1845.790446 1579.017821,1845.163520 1579.752230,1844.581228 1580.513599,1844.054590 1581.311218,1843.561497 1582.144921,1843.124127 1582.996459,1842.742343 1583.865914,1842.405057 1584.762245,1842.134515 1585.667368,1841.908402 1586.590243,1841.748966 1587.521909,1841.633958 1588.453077,1841.585490 1589.392954,1841.592540 1590.323289,1841.654971 1605.067069,1842.065026 1605.258694,1842.066463 1604.353295,1872.736210 1573.196627,1871.814883 1573.691596,1855.703986"/>
    <poly id="162041372" type="building.yes" color="255,230,230" fill="1" layer="-1.00" shape="1565.745174,1884.657346 1566.266226,1861.415403 1559.332227,1861.230323 1541.895521,1876.770586 1543.292288,1877.912295 1543.115657,1884.432230 1565.745174,1884.657346"/>
    <poly id="162041376" type="building.yes" color="255,230,230" fill="1" layer="-1.00" shape="1504.556763,1883.710735 1505.265860,1869.453567 1503.888402,1869.387794 1504.509543,1857.126271 1524.350184,1858.106729 1523.802532,1869.082296 1506.505935,1884.202233 1504.556763,1883.710735"/>
    <poly id="162041381" type="building.yes" color="255,230,230" fill="1" layer="-1.00" shape="1528.864498,1810.994523 1537.395281,1803.905039 1545.971951,1796.782635 1518.891829,1765.725696 1517.616045,1766.703198 1508.795984,1773.424544 1506.446420,1775.214705 1506.565488,1780.028906 1492.453135,1780.588623 1492.446324,1781.497999 1491.222816,1781.588650 1489.982915,1811.889902 1528.864498,1810.994523"/>
    <poly id="162565997" type="amenity.parking" color="184,184,179" fill="1" layer="-1.00" shape="1537.623616,1565.237605 1573.791036,1566.207450 1573.325157,1574.788060 1537.478652,1573.620991 1537.623616,1565.237605"/>
    <poly id="162565999" type="amenity.parking" color="184,184,179" fill="1" layer="-1.00" shape="1984.716925,1435.590075 1984.714890,1431.020740 1997.133517,1431.258606 1997.143500,1435.983269 1984.716925,1435.590075"/>
    <poly id="162566002" type="amenity.parking" color="184,184,179" fill="1" layer="-1.00" shape="2755.307980,1474.529968 2761.066786,1474.485174 2762.928208,1456.576958 2755.352903,1459.070009 2755.307980,1474.529968"/>
    <poly id="162566007" type="amenity.parking" color="184,184,179" fill="1" layer="-1.00" shape="2003.151440,1452.509206 2029.598476,1452.498081 2029.596631,1447.906566 2003.149582,1447.917691 2003.151440,1452.509206"/>
    <poly id="162566010" type="building.yes" color="255,230,230" fill="1" layer="-1.00" shape="1527.526243,1765.513136 1553.681478,1766.563159 1553.790895,1761.706307 1560.999222,1761.826895 1561.853335,1742.846234 1528.254264,1741.429864 1527.526243,1765.513136"/>
    <poly id="162566012" type="amenity.toilets" color="237,199,199" fill="1" layer="-1.00" shape="1530.269580,1776.934806 1535.531344,1777.428955 1536.234666,1770.036813 1530.972898,1769.542664 1530.269580,1776.934806"/>
    <poly id="162566012#1" type="building.yes" color="255,230,230" fill="1" layer="-1.00" shape="1530.269580,1776.934806 1535.531344,1777.428955 1536.234666,1770.036813 1530.972898,1769.542664 1530.269580,1776.934806"/>
    <poly id="162566021" type="amenity.school" color="237,199,199" fill="1" layer="-1.00" shape="1570.111150,1611.529209 1534.022498,1608.596934 1530.667697,1610.568095 1505.926080,1610.793063 1505.906141,1613.454651 1481.205436,1613.092192 1481.170584,1604.341470 1424.912080,1602.877828 1425.330672,1643.283905 1446.399964,1642.332527 1446.374231,1645.770411 1464.866050,1646.574275 1464.767342,1645.131761 1502.303463,1647.298268 1502.291002,1648.961761 1519.562527,1649.423877 1519.241947,1665.414081 1565.326928,1669.042323 1570.111150,1611.529209"/>
    <poly id="162566024" type="building.yes" color="255,230,230" fill="1" layer="-1.00" shape="2148.267899,1477.195025 2176.581970,1477.675342 2176.689388,1471.920139 2169.709635,1471.712074 2169.686872,1471.101920 2166.082341,1471.074656 2166.041712,1472.826662 2162.811741,1472.746780 2162.852454,1470.983684 2148.161321,1470.772770 2148.267899,1477.195025"/>
    <poly id="162566033" type="building.yes" color="255,230,230" fill="1" layer="-1.00" shape="1902.598865,1434.749176 1902.423035,1427.805148 1895.933347,1427.955885 1895.960213,1432.869214 1896.555640,1433.783127 1897.726304,1434.657012 1900.208420,1434.675712 1900.264360,1435.729739 1900.789875,1436.232774 1901.410237,1436.259630 1901.967557,1436.175104 1902.500090,1435.746584 1902.598865,1434.749176"/>
    <poly id="162566035" type="building.yes" color="255,230,230" fill="1" layer="-1.00" shape="1815.120200,1508.375179 1830.513753,1508.613026 1830.728849,1494.585062 1815.335355,1494.336125 1815.332184,1494.757544 1808.890092,1494.653616 1808.905393,1493.833028 1807.308787,1493.776653 1807.333933,1491.647451 1793.946265,1491.646545 1793.910114,1504.943875 1807.169424,1505.021450 1807.195488,1502.770259 1815.205801,1503.063436 1815.120200,1508.375179"/>
    <poly id="162566036" type="building.yes" color="255,230,230" fill="1" layer="-1.00" shape="1561.894944,1664.269824 1564.873838,1616.281066 1524.003742,1613.290800 1523.759256,1614.253848 1514.007944,1613.703888 1513.241651,1629.502212 1519.441986,1630.191921 1519.327368,1634.527476 1522.711080,1634.785733 1522.916220,1629.330709 1526.136761,1629.443566 1525.353374,1637.777806 1525.370781,1651.286254 1550.232458,1653.291447 1549.262952,1663.321148 1561.894944,1664.269824"/>
    <poly id="162566037" type="building.yes" color="255,230,230" fill="1" layer="-1.00" shape="2150.682058,1454.821385 2147.734550,1454.799097 2147.581823,1470.169496 2160.156369,1470.297858 2160.184533,1467.780508 2156.488830,1467.741468 2156.569394,1459.501771 2160.018798,1459.527858 2159.978305,1463.675431 2162.569919,1463.695031 2162.702558,1449.777347 2151.086069,1449.667317 2150.730178,1449.664626 2150.682058,1454.821385"/>
    <poly id="162566045" type="building.yes" color="255,230,230" fill="1" layer="-1.00" shape="2714.980787,1403.863654 2700.071541,1403.517103 2700.057330,1408.973570 2690.109811,1408.997572 2690.194928,1438.543583 2699.567682,1438.493020 2699.662243,1434.467852 2705.833239,1434.226534 2705.832576,1430.721898 2706.307268,1430.703335 2706.297715,1431.956501 2710.367748,1431.976435 2710.845061,1431.614084 2710.880812,1429.318602 2710.428344,1428.816076 2709.214659,1428.806824 2709.229284,1426.888261 2707.449991,1426.852517 2707.451432,1425.466202 2705.736101,1425.419855 2705.832694,1421.128528 2711.947087,1421.130775 2711.920710,1424.590842 2712.392444,1424.960428 2713.798355,1424.893512 2714.421760,1424.521184 2714.401919,1421.138399 2717.769465,1421.130800 2717.722581,1418.901232 2724.765151,1419.254372 2724.648492,1414.207259 2719.557076,1414.090806 2719.506514,1403.964701 2718.028356,1403.931250 2718.024479,1402.045818 2714.976317,1402.055852 2714.980787,1403.863654"/>
    <poly id="162566048" type="building.yes" color="255,230,230" fill="1" layer="-1.00" shape="1581.341582,1705.672589 1594.716560,1706.105627 1594.836013,1702.346818 1581.461030,1701.913779 1581.341582,1705.672589"/>
    <poly id="162566050" type="amenity.police" color="237,199,199" fill="1" layer="-1.00" shape="1536.440919,1850.877566 1536.811619,1841.597532 1531.529648,1841.369403 1531.149662,1850.671549 1536.440919,1850.877566"/>
    <poly id="162566050#1" type="building.yes" color="255,230,230" fill="1" layer="-1.00" shape="1536.440919,1850.877566 1536.811619,1841.597532 1531.529648,1841.369403 1531.149662,1850.671549 1536.440919,1850.877566"/>
    <poly id="162566051" type="building.yes" color="255,230,230" fill="1" layer="-1.00" shape="1581.456468,1697.654964 1581.407443,1701.758109 1595.230807,1702.028153 1595.271545,1697.814040 1581.456468,1697.654964"/>
    <poly id="162566052" type="building.yes" color="255,230,230" fill="1" layer="-1.00" shape="2210.254058,1496.096507 2217.555614,1495.985412 2217.346417,1482.630759 2210.044850,1482.741854 2210.254058,1496.096507"/>
    <poly id="162566060" type="building.yes" color="255,230,230" fill="1" layer="-1.00" shape="1809.242833,1475.669201 1817.692273,1475.821506 1817.777747,1451.123432 1809.675634,1450.896107 1809.242833,1475.669201"/>
    <poly id="162566062" type="building.yes" color="255,230,230" fill="1" layer="-1.00" shape="2710.098721,1472.055822 2718.110234,1472.194533 2718.072270,1460.416023 2710.190363,1460.034307 2710.098721,1472.055822"/>
    <poly id="162566063" type="building.yes" color="255,230,230" fill="1" layer="-1.00" shape="1583.987146,1692.405921 1598.363831,1693.123742 1599.755512,1665.751552 1585.369658,1665.033661 1583.987146,1692.405921"/>
    <poly id="162566068" type="building.yes" color="255,230,230" fill="1" layer="-1.00" shape="1899.782470,1469.408199 1899.377537,1448.055782 1893.006744,1448.174144 1893.411692,1469.526561 1899.782470,1469.408199"/>
    <poly id="162566072" type="building.yes" color="255,230,230" fill="1" layer="-1.00" shape="1881.156977,1470.554396 1892.444670,1470.694877 1892.644097,1455.125206 1881.347259,1454.984656 1881.156977,1470.554396"/>
    <poly id="162566073" type="building.yes" color="255,230,230" fill="1" layer="-1.00" shape="1798.234832,1465.039240 1798.329693,1452.429968 1792.927451,1452.389328 1792.832598,1464.998600 1798.234832,1465.039240"/>
    <poly id="162566074" type="building.hotel" color="255,230,230" fill="1" layer="-1.00" shape="2665.807331,1508.417090 2666.945192,1466.869274 2627.839604,1465.795093 2626.701922,1507.342911 2665.807331,1508.417090"/>
    <poly id="162566080" type="building.yes" color="255,230,230" fill="1" layer="-1.00" shape="2508.895601,1471.344942 2534.127336,1471.536765 2534.140412,1459.015580 2529.743911,1453.924838 2509.030390,1453.612102 2508.895601,1471.344942"/>
    <poly id="162566082" type="building.yes" color="255,230,230" fill="1" layer="-1.00" shape="2237.969110,1475.644538 2237.684446,1461.413157 2237.519873,1453.016335 2224.871292,1453.020393 2225.166604,1475.492162 2237.969110,1475.644538"/>
    <poly id="162566085" type="building.yes" color="255,230,230" fill="1" layer="-1.00" shape="1809.280961,1466.963384 1809.285077,1450.649176 1804.557614,1450.680150 1804.480147,1469.467005 1807.026548,1469.430711 1806.981362,1466.946081 1809.280961,1466.963384"/>
    <poly id="162566090" type="building.yes" color="255,230,230" fill="1" layer="-1.00" shape="1548.396199,1696.164931 1548.335755,1699.358563 1552.724541,1699.446916 1552.696231,1700.788664 1563.171079,1700.978103 1563.250714,1696.442655 1548.396199,1696.164931"/>
    <poly id="162566093" type="building.yes" color="255,230,230" fill="1" layer="-1.00" shape="1552.232263,1536.256536 1561.912732,1536.528739 1562.184080,1531.983639 1563.288244,1531.991917 1564.189012,1531.133606 1572.118256,1531.281785 1572.371779,1521.812337 1552.374778,1520.897163 1552.232263,1536.256536"/>
    <poly id="162566094" type="building.roof" color="255,230,230" fill="1" layer="-1.00" shape="1600.102484,1808.046248 1611.736840,1808.144630 1611.733818,1806.115032 1611.767879,1804.008077 1600.142643,1803.909764 1595.433918,1801.467784 1588.314221,1793.185169 1586.917895,1794.416840 1585.558901,1795.537885 1592.669556,1803.809340 1600.102484,1808.046248"/>
    <poly id="162566095" type="building.yes" color="255,230,230" fill="1" layer="-1.00" shape="2726.338239,1483.436595 2727.558298,1462.262846 2719.566972,1461.869197 2719.273967,1473.966811 2713.471564,1473.745125 2713.489968,1477.316439 2715.907776,1477.390325 2715.791484,1483.067827 2726.338239,1483.436595"/>
    <poly id="162566096" type="building.yes" color="255,230,230" fill="1" layer="-1.00" shape="1812.309871,1488.912247 1812.520717,1480.296455 1782.202413,1479.358572 1782.236063,1488.231286 1791.370394,1488.322175 1791.416169,1490.729175 1800.294654,1490.862511 1800.430054,1488.634323 1812.309871,1488.912247"/>
    <poly id="162566097" type="building.yes" color="255,230,230" fill="1" layer="-1.00" shape="2213.614103,1513.955605 2221.681924,1513.883585 2221.650929,1510.744714 2232.636935,1510.949878 2232.806414,1501.823605 2221.793020,1501.618234 2221.847511,1498.036386 2213.553054,1497.907060 2213.424125,1506.501291 2213.614103,1513.955605"/>
    <poly id="162566099" type="building.yes" color="255,230,230" fill="1" layer="-1.00" shape="2271.541219,1461.469929 2271.690354,1453.829642 2268.884912,1450.714117 2255.069365,1450.565116 2255.119075,1454.846460 2250.948761,1454.814878 2250.925918,1457.831346 2251.028227,1461.192569 2256.147329,1461.264608 2271.541219,1461.469929"/>
    <poly id="162566100" type="building.yes" color="255,230,230" fill="1" layer="-1.00" shape="1829.907094,1492.216584 1829.425748,1456.745292 1827.045798,1454.065641 1824.020975,1452.190749 1821.298987,1451.305199 1817.935216,1450.814081 1817.755316,1475.932886 1813.849651,1475.903496 1813.619394,1491.949829 1829.907094,1492.216584"/>
    <poly id="162566101" type="building.yes" color="255,230,230" fill="1" layer="-1.00" shape="1539.179623,1668.114328 1538.138018,1685.330182 1542.178890,1685.571190 1541.991777,1688.619696 1548.677866,1689.024712 1548.855855,1685.976139 1554.192002,1686.293406 1555.233638,1669.077554 1539.179623,1668.114328"/>
    <poly id="162566102" type="building.yes" color="255,230,230" fill="1" layer="-1.00" shape="1880.792203,1430.536839 1884.055723,1433.433880 1895.647024,1433.255025 1895.591259,1427.332235 1902.409129,1427.228333 1902.129673,1415.869475 1897.211392,1415.788057 1897.350836,1408.180971 1880.905263,1408.256717 1880.792203,1430.536839"/>
    <poly id="162566116" type="amenity.taxi" color="237,199,199" fill="1" layer="-1.00" shape="1629.666864,1799.861437 1629.798125,1782.372581 1592.531232,1782.104043 1592.438309,1794.491521 1595.130203,1794.511714 1595.113314,1796.762974 1598.389211,1796.787550 1598.367913,1799.626578 1629.666864,1799.861437"/>
    <poly id="162566137" type="amenity.parking" color="184,184,179" fill="1" layer="-1.00" shape="3083.019489,1653.254468 3066.157375,1654.145580 3053.214575,1654.467856 3051.830644,1634.993223 3083.031475,1635.021587 3083.026587,1643.993858 3083.019489,1653.254468"/>
    <poly id="162566139" type="amenity.parking" color="184,184,179" fill="1" layer="-1.00" shape="1892.645099,1454.992126 1892.633437,1448.060426 1885.552951,1447.896183 1881.354339,1452.833137 1881.348262,1454.851576 1892.645099,1454.992126"/>
    <poly id="162566140" type="amenity.parking" color="184,184,179" fill="1" layer="-1.00" shape="1549.104548,1691.756192 1549.427000,1686.479496 1554.744896,1686.796627 1555.825528,1669.248350 1565.576446,1669.842715 1564.215989,1691.847304 1549.104548,1691.756192"/>
    <poly id="162566141" type="amenity.parking" color="184,184,179" fill="1" layer="-1.00" shape="2251.028227,1461.192569 2237.684446,1461.413157 2237.463380,1448.424403 2255.020688,1448.557351 2255.069365,1450.565116 2255.119075,1454.846460 2250.948761,1454.814878 2250.925918,1457.831346 2251.028227,1461.192569"/>
    <poly id="162566142" type="amenity.bicycle_parking" color="237,199,199" fill="1" layer="-1.00" shape="1545.417077,1785.588085 1538.340843,1784.891789 1536.646008,1783.337496 1537.810415,1769.216831 1546.921806,1769.895110 1554.563391,1770.651103 1553.577218,1780.469959 1552.373335,1792.549661 1545.417077,1785.588085"/>
    <poly id="162699013" type="building.yes" color="255,230,230" fill="1" layer="-1.00" shape="1800.895143,1851.333083 1791.340011,1841.723290 1779.577778,1841.645897 1779.439283,1862.484061 1800.792030,1862.611431 1800.895143,1851.333083"/>
    <poly id="162699013#1" type="tourism.hotel" color="207,245,201" fill="1" layer="-2.00" shape="1800.895143,1851.333083 1791.340011,1841.723290 1779.577778,1841.645897 1779.439283,1862.484061 1800.792030,1862.611431 1800.895143,1851.333083"/>
    <poly id="190862042" type="amenity.school" color="237,199,199" fill="1" layer="-1.00" shape="1931.711119,2104.107985 1859.627031,2103.365171 1859.685560,2099.228821 1847.671004,2098.772353 1850.604374,1978.250838 1953.704513,1979.282865 1953.643125,1987.422895 1952.017894,1987.543726 1954.429910,2052.497325 1932.824365,2052.068233 1931.711119,2104.107985"/>
    <poly id="190862043" type="building.yes" color="255,230,230" fill="1" layer="-1.00" shape="1614.186042,1866.044736 1612.132669,1866.062600 1612.252229,1875.667938 1616.495929,1875.622149 1616.478041,1874.357689 1635.531007,1874.500686 1635.685925,1853.862281 1614.278664,1853.701617 1608.421992,1853.446950 1607.999159,1864.800530 1614.065865,1865.034592 1614.186042,1866.044736"/>
    <poly id="190862044" type="building.yes" color="255,230,230" fill="1" layer="-1.00" shape="1878.376167,1994.785352 1944.791981,1995.829360 1944.923999,1985.582650 1927.342868,1985.117378 1927.189107,1987.356518 1921.641935,1987.214887 1921.374863,1985.116752 1902.560787,1984.786412 1902.351196,1987.169310 1896.721148,1987.126884 1896.692404,1984.886369 1878.554654,1984.416997 1878.376167,1994.785352"/>
    <poly id="190862045" type="building.roof" color="255,230,230" fill="1" layer="-1.00" shape="1606.868884,1847.601653 1606.840788,1850.130094 1616.431088,1850.213146 1616.458384,1846.575641 1610.591002,1846.531614 1610.604233,1844.768311 1632.896641,1844.935609 1632.939093,1839.279732 1607.690248,1839.079161 1607.648755,1843.393084 1606.207003,1843.382267 1605.394876,1843.376173 1605.363341,1847.579266 1606.175384,1847.596449 1606.868884,1847.601653"/>
    <poly id="190862047" type="building.yes" color="255,230,230" fill="1" layer="-1.00" shape="1535.378038,1909.893649 1548.890338,1910.227841 1549.060655,1904.550742 1535.336810,1904.436776 1535.426029,1896.186055 1519.256349,1896.098144 1517.370824,1900.509155 1514.568466,1900.621243 1514.625677,1902.728881 1513.001435,1902.716711 1512.951224,1904.546280 1510.962400,1904.475925 1510.771176,1905.639003 1509.219436,1905.693919 1509.382257,1907.103643 1507.995016,1907.126520 1508.023705,1908.169250 1507.175085,1908.162891 1507.171761,1908.606490 1506.113018,1908.631829 1506.087193,1910.860841 1524.756416,1911.056187 1525.284901,1906.291199 1535.495056,1906.456447 1535.378038,1909.893649"/>
    <poly id="190862048" type="building.yes" color="255,230,230" fill="1" layer="-1.00" shape="1877.147109,2029.533998 1944.112584,2030.260520 1944.134150,2005.617391 1877.508202,2004.616166 1877.147109,2029.533998"/>
    <poly id="190862050" type="building.yes" color="255,230,230" fill="1" layer="-1.00" shape="1943.175403,2050.471600 1951.962179,2050.593314 1952.168174,2035.378577 1943.381383,2035.256863 1943.175403,2050.471600"/>
    <poly id="190862051" type="building.yes" color="255,230,230" fill="1" layer="-1.00" shape="1563.180152,1893.277673 1563.267317,1885.304201 1535.071402,1885.059549 1526.444127,1892.858108 1563.180152,1893.277673"/>
    <poly id="190862052" type="building.yes" color="255,230,230" fill="1" layer="-1.00" shape="1876.111613,1994.979014 1875.968774,2004.249670 1945.724300,2005.307754 1945.867210,1996.037098 1876.111613,1994.979014"/>
    <poly id="190862053" type="building.yes" color="255,230,230" fill="1" layer="-1.00" shape="1851.654180,1984.258751 1855.515489,1987.725911 1860.143970,1982.625826 1856.282662,1979.158664 1851.654180,1984.258751"/>
    <poly id="190862055" type="building.yes" color="255,230,230" fill="1" layer="-1.00" shape="1788.650107,1872.978499 1800.209380,1873.342732 1800.484926,1864.616516 1788.925641,1864.252282 1788.650107,1872.978499"/>
    <poly id="190862057" type="building.yes" color="255,230,230" fill="1" layer="-1.00" shape="1847.600349,2103.307872 1858.442316,2103.156617 1858.401411,2100.106397 1847.559441,2100.257652 1847.600349,2103.307872"/>
    <poly id="190862059" type="building.yes" color="255,230,230" fill="1" layer="-1.00" shape="1540.602414,1893.452211 1540.604459,1900.483653 1558.070042,1900.559138 1558.190123,1897.931571 1560.325697,1897.903221 1560.368166,1893.456218 1540.602414,1893.452211"/>
    <poly id="190862063" type="amenity.parking" color="184,184,179" fill="1" layer="-1.00" shape="1851.685807,2038.225790 1868.572264,2038.829863 1869.156664,2023.030176 1851.538605,2022.631314 1851.685807,2038.225790"/>
    <poly id="190862064" type="amenity.parking" color="184,184,179" fill="1" layer="-1.00" shape="1851.722578,2016.377608 1852.003830,2005.688399 1868.745852,2006.091753 1868.938070,2016.917615 1851.722578,2016.377608"/>
    <poly id="190862065" type="leisure.pitch" color="207,245,201" fill="1" layer="-2.00" shape="1849.046482,2097.884373 1930.698466,2098.022706 1931.239114,2038.414855 1881.967235,2037.755165 1881.455482,2042.697712 1850.126386,2042.938637 1849.046482,2097.884373"/>
    <poly id="200721067" type="building.yes" color="255,230,230" fill="1" layer="-1.00" shape="1779.502747,1966.869117 1781.628764,1966.896201 1781.683836,1963.214541 1779.557818,1963.187457 1779.502747,1966.869117"/>
    <poly id="200721070" type="building.yes" color="255,230,230" fill="1" layer="-1.00" shape="1796.487792,1967.728879 1797.023356,1952.339176 1789.962096,1952.097508 1789.635846,1961.499870 1783.778828,1961.300539 1783.569613,1967.276790 1796.487792,1967.728879"/>
    <poly id="200721071" type="building.yes" color="255,230,230" fill="1" layer="-1.00" shape="1779.344378,1961.233909 1782.345802,1961.345211 1782.647808,1950.312351 1787.245762,1950.480028 1787.427719,1945.701355 1779.116507,1945.428111 1779.344378,1961.233909"/>
    <poly id="201392181" type="building.yes" color="255,230,230" fill="1" layer="-1.00" shape="1795.078753,2403.589522 1794.721724,2378.278103 1788.945009,2378.356631 1789.088144,2388.439057 1783.466552,2388.518756 1783.680471,2403.747748 1795.078753,2403.589522"/>
    <poly id="202548485" type="amenity.townhall" color="237,199,199" fill="1" layer="-1.00" shape="1771.546436,2620.577389 1789.879954,2620.327161 1789.395307,2585.299412 1796.449457,2585.208319 1795.479444,2515.252635 1787.138457,2515.367319 1787.128386,2514.280365 1779.243700,2514.387398 1779.224504,2513.300376 1771.020465,2513.405014 1771.031956,2514.303438 1770.073733,2514.318411 1771.546436,2620.577389"/>
    <poly id="202548485#1" type="building.yes" color="255,230,230" fill="1" layer="-1.00" shape="1771.546436,2620.577389 1789.879954,2620.327161 1789.395307,2585.299412 1796.449457,2585.208319 1795.479444,2515.252635 1787.138457,2515.367319 1787.128386,2514.280365 1779.243700,2514.387398 1779.224504,2513.300376 1771.020465,2513.405014 1771.031956,2514.303438 1770.073733,2514.318411 1771.546436,2620.577389"/>
    <poly id="205453940" type="building.yes" color="255,230,230" fill="1" layer="-1.00" shape="1690.658076,1852.644766 1698.560082,1852.737404 1698.719193,1840.062065 1690.808134,1839.958269 1690.658076,1852.644766"/>
    <poly id="205453944" type="building.yes" color="255,230,230" fill="1" layer="-1.00" shape="1962.162069,1807.697607 1974.236526,1807.522506 1973.976322,1789.997414 1961.901842,1790.172516 1962.162069,1807.697607"/>
    <poly id="205453946" type="building.yes" color="255,230,230" fill="1" layer="-1.00" shape="2059.556740,1782.669234 2078.509955,1782.756946 2078.536193,1776.868041 2059.582965,1776.780328 2059.556740,1782.669234"/>
    <poly id="205453948" type="building.yes" color="255,230,230" fill="1" layer="-1.00" shape="2002.229138,1822.650547 2006.399366,1822.670927 2006.428484,1815.185000 2002.267378,1815.164688 2002.229138,1822.650547"/>
    <poly id="205453950" type="building.yes" color="255,230,230" fill="1" layer="-1.00" shape="2053.740320,1801.246407 2060.228827,1801.217776 2060.133039,1783.693920 2053.653645,1783.722620 2053.740320,1801.246407"/>
    <poly id="205453952" type="building.yes" color="255,230,230" fill="1" layer="-1.00" shape="1601.082666,1767.406637 1609.185580,1767.489612 1609.290257,1757.187251 1601.196458,1757.104345 1601.082666,1767.406637"/>
    <poly id="205453956" type="building.yes" color="255,230,230" fill="1" layer="-1.00" shape="1791.894130,1888.152642 1791.856659,1889.494321 1799.821424,1889.731697 1799.858980,1888.378928 1800.238900,1875.483437 1792.274039,1875.257151 1789.062629,1875.155357 1788.682724,1888.050848 1791.894130,1888.152642"/>
    <poly id="205453958" type="building.yes" color="255,230,230" fill="1" layer="-1.00" shape="1610.566606,1757.352096 1635.768803,1757.718679 1635.885652,1749.445985 1610.692557,1749.079470 1610.566606,1757.352096"/>
    <poly id="205453960" type="building.yes" color="255,230,230" fill="1" layer="-1.00" shape="1975.506654,1820.607890 1989.870727,1820.549897 1989.844919,1814.294611 1975.480836,1814.352603 1975.506654,1820.607890"/>
    <poly id="205453962" type="building.yes" color="255,230,230" fill="1" layer="-1.00" shape="2025.658060,1822.173036 2033.724765,1822.211754 2034.077653,1797.227320 2025.520014,1796.940903 2025.658060,1822.173036"/>
    <poly id="205453965" type="building.yes" color="255,230,230" fill="1" layer="-1.00" shape="1956.165128,1749.803879 1987.297167,1749.206910 1987.317310,1741.698734 1956.007092,1741.717650 1956.165128,1749.803879"/>
    <poly id="205453967" type="building.yes" color="255,230,230" fill="1" layer="-1.00" shape="1798.526423,1818.065691 1804.959579,1818.114097 1805.096377,1797.508823 1798.672332,1797.460486 1798.526423,1818.065691"/>
    <poly id="205453969" type="building.yes" color="255,230,230" fill="1" layer="-1.00" shape="1672.674741,1784.191717 1696.783189,1784.372807 1696.868838,1772.972335 1672.760360,1772.791245 1672.674741,1784.191717"/>
    <poly id="205453971" type="building.yes" color="255,230,230" fill="1" layer="-1.00" shape="1767.749240,1856.451583 1763.132155,1856.394679 1762.991038,1869.092335 1767.608200,1869.138149 1767.665567,1863.937097 1772.237107,1863.982571 1772.488889,1841.426219 1767.917338,1841.380745 1767.749240,1856.451583"/>
    <poly id="205453973" type="building.yes" color="255,230,230" fill="1" layer="-1.00" shape="1961.598532,1789.249710 1984.504142,1789.200677 1984.497673,1784.010234 1961.582924,1784.059197 1961.598532,1789.249710"/>
    <poly id="205453974" type="building.yes" color="255,230,230" fill="1" layer="-1.00" shape="2061.977128,1723.186502 2065.618395,1723.169642 2065.550155,1705.623815 2061.908882,1705.640675 2061.977128,1723.186502"/>
    <poly id="205453976" type="building.yes" color="255,230,230" fill="1" layer="-1.00" shape="1996.003600,1822.903014 2002.117462,1822.938059 2002.156201,1814.176786 1996.042334,1814.141742 1996.003600,1822.903014"/>