<?xml version="1.0" encoding="UTF-8"?>

<!-- generated on Mon Apr 27 00:51:11 2020 by Eclipse SUMO polyconvert Version 1.5.0
<configuration xmlns:xsi="http://www.w3.org/2001/XMLSchema-instance" xsi:noNamespaceSchemaLocation="http://sumo.dlr.de/xsd/polyconvertConfiguration.xsd">

    <input>
        <net-file value="osm.net.xml"/>
        <osm-files value="osm_bbox.osm.xml"/>
        <osm.keep-full-type value="true"/>
        <type-file value="/usr/share/sumo/data/typemap/osmPolyconvert.typ.xml"/>
    </input>

    <output>
        <output-file value="osm.poly.xml"/>
    </output>

    <processing>
        <poi-layer-offset value="5"/>
    </processing>

    <report>
        <verbose value="true"/>
    </report>

</configuration>
-->

<additional xmlns:xsi="http://www.w3.org/2001/XMLSchema-instance" xsi:noNamespaceSchemaLocation="http://sumo.dlr.de/xsd/additional_file.xsd">
    <location netOffset="-668510.12,-3886540.31" convBoundary="-0.00,-1157.00,3837.82,5926.11" origBoundary="136.849710,35.096755,136.892146,35.160478" projParameter="+proj=utm +zone=53 +ellps=WGS84 +datum=WGS84 +units=m +no_defs"/>

    <poly id="140394925" type="landuse.reservoir" color="194,194,130" fill="1" layer="-3.00" shape="1714.133234,3751.539937 1707.915964,3751.123605 1705.167884,3757.196883 1708.152670,3764.243280 1712.937528,3776.871379 1723.684969,3778.238260 1730.177645,3776.607054 1735.498644,3773.788789 1740.957999,3776.221437 1744.882988,3771.057937 1750.446299,3767.955740 1754.701059,3770.953850 1759.473553,3771.620473 1767.593306,3772.649559 1772.892442,3770.995964 1779.918921,3766.179229 1786.367860,3766.877359 1789.134474,3765.642220 1791.165461,3761.841228 1789.881161,3756.946043 1787.834499,3751.392981 1783.099122,3750.205538 1778.756640,3751.877100 1772.533745,3751.760204 1767.540811,3750.212866 1758.519163,3746.248645 1756.503590,3751.170609 1750.384407,3758.634107 1744.832131,3761.148434 1740.340474,3758.145880 1730.207131,3749.800161 1725.644226,3750.591040 1719.206312,3749.305084 1714.133234,3751.539937"/>
    <poly id="140394996" type="natural.wood" color="140,196,107" fill="1" layer="-4.00" shape="1852.401934,3883.226023 1855.838442,3891.446029 1859.994710,3899.679564 1872.720970,3897.588644 1891.939658,3893.877744 1901.258204,3896.582769 1862.286940,3914.468978 1822.613280,3933.851176 1819.623998,3934.327603 1798.609928,3908.933908 1777.104274,3882.532412 1766.002729,3869.940952 1758.981812,3861.365166 1752.432931,3853.375233 1737.506230,3834.320787 1725.530487,3820.226129 1720.216792,3813.435575 1692.727248,3780.475282 1691.876742,3777.230437 1690.901180,3773.850094 1693.132944,3733.625358 1716.994331,3734.594904 1724.445459,3737.741787 1732.383139,3735.849226 1763.694513,3737.114149 1807.045387,3738.893865 1838.883324,3740.268804 1852.725169,3725.871368 1863.203235,3715.871244 1873.730315,3716.357590 1876.788696,3726.756366 1885.527686,3741.877775 1902.598707,3738.492673 1905.924755,3755.498499 1882.347782,3776.736511 1877.987527,3776.443733 1870.539103,3772.187189 1866.762881,3764.582161 1864.885394,3757.789528 1857.096456,3759.041212 1856.238678,3766.370515 1860.952972,3772.073594 1863.594245,3777.992917 1867.006159,3781.219349 1874.684039,3781.996119 1884.119149,3785.779603 1885.247796,3794.588699 1886.529202,3800.604523 1880.314407,3805.392051 1871.908162,3805.544728 1865.643452,3802.320154 1859.729544,3798.858070 1856.474868,3806.663828 1851.352170,3811.538474 1854.583670,3823.394049 1855.707027,3834.910418 1863.739158,3840.598187 1865.027202,3848.200833 1861.499228,3857.455003 1855.050357,3856.756817 1852.703161,3867.198242 1850.862470,3875.907145 1847.356047,3875.286456 1850.942352,3849.833498 1851.659472,3841.258821 1850.344148,3821.527948 1848.047685,3798.716195 1849.794398,3796.463285 1856.840903,3793.977104 1852.785805,3787.631763 1847.887974,3785.875345 1844.406146,3782.004051 1837.571492,3777.581536 1832.094592,3776.568761 1819.385267,3777.750209 1816.895267,3786.091851 1793.350226,3786.725773 1783.872785,3785.194038 1778.357340,3775.559133 1771.445351,3775.251760 1761.278658,3776.447764 1752.271882,3785.765499 1745.461765,3789.254822 1748.382763,3814.253041 1746.316874,3817.487500 1742.393304,3790.062664 1722.331738,3804.676324 1741.779263,3832.947490 1747.627701,3827.764639 1750.241262,3842.926207 1771.712278,3867.784661 1799.196284,3871.418914 1807.309964,3875.676806 1815.353130,3880.776663 1838.515055,3883.542024 1841.895207,3882.151996 1852.401934,3883.226023"/>
    <poly id="176754978" type="leisure.park" color="207,245,201" fill="1" layer="-2.00" shape="1888.549920,3715.892723 1902.709246,3729.218654 1907.345963,3756.501648 1883.855367,3777.508268 1904.149481,3893.563584 1902.158876,3897.154492 1823.292520,3935.051191 1819.267719,3935.341723 1692.127947,3780.841287 1690.335459,3773.883856 1692.246145,3732.798715 1838.224793,3738.936029 1861.678397,3715.531904 1888.549920,3715.892723"/>
    <poly id="225366441" type="building.yes" color="255,230,230" fill="1" layer="-1.00" shape="2239.432419,4075.575639 2245.396240,4075.887712 2245.664421,4070.844158 2295.905936,4073.488443 2295.636055,4078.620732 2297.794064,4078.727973 2298.915138,4057.445082 2225.255094,4053.582929 2224.404033,4069.733532 2239.700596,4070.532084 2239.432419,4075.575639"/>
    <poly id="225366442" type="building.yes" color="255,230,230" fill="1" layer="-1.00" shape="2226.644649,4008.360281 2228.174650,4008.422388 2228.062947,4011.449447 2230.257832,4011.535174 2230.308983,4010.271213 2244.608047,4010.806869 2245.112639,3997.567945 2230.613324,3997.017421 2230.290539,4005.444176 2226.756770,4005.311038 2226.644649,4008.360281"/>
    <poly id="225366444" type="building.yes" color="255,230,230" fill="1" layer="-1.00" shape="2225.592254,4032.296369 2232.696214,4032.563333 2232.882390,4027.518234 2304.049579,4030.190588 2305.198591,3999.687580 2245.333599,3997.450053 2244.820858,4011.121562 2230.530905,4010.586076 2230.205404,4019.157027 2226.097864,4019.001985 2225.592254,4032.296369"/>
    <poly id="225366452" type="building.yes" color="255,230,230" fill="1" layer="-1.00" shape="2234.224930,3866.731577 2264.007526,3867.847406 2264.209722,3862.436447 2234.427108,3861.320619 2234.224930,3866.731577"/>
    <poly id="225366455" type="building.yes" color="255,230,230" fill="1" layer="-1.00" shape="2354.690615,3879.653491 2360.137120,3879.856019 2360.307979,3875.143506 2354.861472,3874.940978 2354.690615,3879.653491"/>
    <poly id="225366456" type="building.yes" color="255,230,230" fill="1" layer="-1.00" shape="1893.222866,3812.525194 1898.146512,3811.452691 1896.777966,3805.224406 1891.854317,3806.296910 1893.222866,3812.525194"/>
    <poly id="225366458" type="building.yes" color="255,230,230" fill="1" layer="-1.00" shape="1973.852080,3843.800210 1978.159858,3843.004659 1977.580288,3839.898026 1973.272509,3840.693578 1973.852080,3843.800210"/>
    <poly id="225366459" type="building.yes" color="255,230,230" fill="1" layer="-1.00" shape="2355.590827,3873.478979 2361.338000,3873.687175 2361.608061,3866.613117 2355.861093,3866.393830 2355.590827,3873.478979"/>
    <poly id="225366462" type="building.yes" color="255,230,230" fill="1" layer="-1.00" shape="1970.973141,3829.199452 1976.287731,3828.178727 1975.623307,3824.737623 1970.308715,3825.758349 1970.973141,3829.199452"/>
    <poly id="225366465" type="building.yes" color="255,230,230" fill="1" layer="-1.00" shape="2325.776440,3991.564877 2349.465530,3992.455209 2350.001129,3978.062899 2326.321112,3977.172738 2325.776440,3991.564877"/>
    <poly id="225366472" type="building.yes" color="255,230,230" fill="1" layer="-1.00" shape="2222.961546,3994.864945 2288.901219,3997.338840 2289.660920,3977.336260 2223.711991,3974.862193 2222.961546,3994.864945"/>
    <poly id="225366473" type="building.yes" color="255,230,230" fill="1" layer="-1.00" shape="2329.012137,3879.846348 2353.193514,3880.745951 2353.424440,3874.780741 2329.233935,3873.880966 2329.012137,3879.846348"/>
    <poly id="225366478" type="building.yes" color="255,230,230" fill="1" layer="-1.00" shape="1970.764215,3920.269981 1973.411160,3932.181192 1981.950268,3930.289071 1979.294015,3918.388778 1970.764215,3920.269981"/>
    <poly id="225366480" type="building.yes" color="255,230,230" fill="1" layer="-1.00" shape="2330.028012,3843.837299 2353.471700,3844.711899 2354.049264,3829.543673 2330.605747,3828.657981 2330.028012,3843.837299"/>
    <poly id="225366483" type="building.yes" color="255,230,230" fill="1" layer="-1.00" shape="2322.230941,4011.881119 2356.330159,4013.156304 2357.054434,3994.074008 2322.946033,3992.798650 2322.230941,4011.881119"/>
    <poly id="225366484" type="building.yes" color="255,230,230" fill="1" layer="-1.00" shape="1953.494166,3826.174462 1954.789923,3832.878508 1969.544240,3830.060244 1968.257604,3823.356366 1953.494166,3826.174462"/>
    <poly id="225366485" type="building.yes" color="255,230,230" fill="1" layer="-1.00" shape="2290.485869,3900.180241 2310.186046,3900.917626 2310.555551,3890.982716 2290.855353,3890.245332 2290.485869,3900.180241"/>
    <poly id="225366489" type="building.yes" color="255,230,230" fill="1" layer="-1.00" shape="2341.653648,3857.116214 2351.153113,3857.472797 2351.369699,3851.784713 2341.870227,3851.428130 2341.653648,3857.116214"/>
    <poly id="225366492" type="building.yes" color="255,230,230" fill="1" layer="-1.00" shape="2222.111594,3972.246719 2298.361435,3975.103505 2299.272632,3950.931744 2223.022795,3948.063865 2222.111594,3972.246719"/>
    <poly id="225366493" type="building.yes" color="255,230,230" fill="1" layer="-1.00" shape="2292.092958,3997.243641 2305.818267,3997.757486 2306.331518,3984.063794 2292.606397,3983.538857 2292.092958,3997.243641"/>
    <poly id="225366494" type="building.yes" color="255,230,230" fill="1" layer="-1.00" shape="2352.487647,3864.521620 2361.977995,3864.878043 2362.198769,3858.968121 2352.708416,3858.611698 2352.487647,3864.521620"/>
    <poly id="225366495" type="building.yes" color="255,230,230" fill="1" layer="-1.00" shape="2328.900631,3897.852797 2334.529345,3898.058744 2334.801476,3890.873767 2329.172967,3890.656728 2328.900631,3897.852797"/>
    <poly id="225366498" type="building.yes" color="255,230,230" fill="1" layer="-1.00" shape="2327.423976,3939.933686 2358.108113,3941.077924 2359.129748,3913.956748 2328.445728,3912.801417 2327.423976,3939.933686"/>
    <poly id="225366499" type="building.yes" color="255,230,230" fill="1" layer="-1.00" shape="2321.758078,4036.971004 2354.636556,4038.212086 2355.542891,4014.306528 2322.655006,4013.076366 2321.758078,4036.971004"/>
    <poly id="225366501" type="building.yes" color="255,230,230" fill="1" layer="-1.00" shape="2352.116135,4081.504949 2327.225069,4080.569750 2326.461095,4100.794171 2320.650501,4100.573698 2320.451611,4105.807188 2351.153197,4106.962861 2352.116135,4081.504949"/>
    <poly id="225366505" type="building.yes" color="255,230,230" fill="1" layer="-1.00" shape="2230.473819,3897.973366 2288.699697,3900.168777 2289.085604,3889.845823 2284.941562,3889.690069 2285.703544,3869.565481 2231.621312,3867.536915 2230.473819,3897.973366"/>
    <poly id="225366506" type="building.yes" color="255,230,230" fill="1" layer="-1.00" shape="1923.999534,3848.033407 1920.685417,3833.790649 1917.957605,3834.416207 1917.080542,3830.649333 1896.658298,3835.347281 1900.840200,3853.367822 1923.999534,3848.033407"/>
    <poly id="225366507" type="building.yes" color="255,230,230" fill="1" layer="-1.00" shape="2229.706938,4083.359247 2230.259953,4071.419447 2224.158839,4071.138085 2222.435797,4108.420931 2236.095071,4109.044394 2237.264935,4083.712441 2229.706938,4083.359247"/>
    <poly id="225366515" type="building.yes" color="255,230,230" fill="1" layer="-1.00" shape="1887.592854,3781.839312 1892.088058,3805.014190 1905.900618,3802.355651 1902.859140,3786.697764 1910.718097,3785.114562 1910.217098,3782.675161 1911.342350,3782.452208 1907.119151,3761.778990 1887.592854,3781.839312"/>
    <poly id="225366516" type="building.yes" color="255,230,230" fill="1" layer="-1.00" shape="2331.048860,3948.290598 2330.046450,3974.879536 2357.624691,3975.909763 2358.754939,3945.927905 2332.397264,3944.931780 2332.451356,3943.512532 2327.114221,3943.312079 2326.932176,3948.135340 2331.048860,3948.290598"/>
    <poly id="225366517" type="building.yes" color="255,230,230" fill="1" layer="-1.00" shape="1967.591893,3859.238809 1967.950640,3861.486910 1986.480635,3858.539960 1984.033556,3843.270473 1960.996565,3846.942666 1961.617456,3850.760207 1958.443623,3851.355174 1960.165376,3860.608175 1967.591893,3859.238809"/>
    <poly id="22765041" type="natural.water" color="181,209,209" fill="0" layer="-4.00" shape="2561.764850,713.269927 2561.640939,683.087014 2567.386671,682.995611 2567.514372,680.090919 2568.742368,673.955901 2583.944159,623.024293 2585.362832,593.236625 2588.551133,504.408287 2589.460362,504.059269 2590.840266,471.008710 2590.165674,470.518871 2593.914266,381.956315 2591.026263,380.381741 2600.895531,161.104076 2604.038659,161.241006 2606.175942,105.913292 2606.732061,100.597796 2607.825240,95.813928 2611.555953,90.902255 2616.594432,87.235777 2624.080152,85.313102 2624.364769,84.242176 2632.646568,83.621630 2634.650808,81.296018 2635.215331,73.117967 2637.318064,67.986977 2640.380502,66.602271 2644.079879,66.738606 2659.205730,67.279055 2663.418080,68.257256 2666.178029,69.374505 2668.027149,71.406622 2668.758728,74.194369 2668.793693,83.460019 2689.154511,85.386366 2877.714019,94.215527 2902.524294,94.218035 2908.647046,92.047934 2907.951431,79.152557 2913.539664,76.317710 2922.385053,75.308621 2929.041836,76.244352 2930.718894,90.278948 3031.186130,74.146526 3062.218123,69.162981 3054.878749,24.263694 2926.091677,44.166107 2927.254232,58.890020 2920.240187,61.420533 2912.278927,62.446323 2905.192998,61.058668 2903.985790,48.697325 2878.287594,50.320233 2669.621530,41.500233 2668.845991,53.613312 2665.780197,55.175478 2659.560540,56.201046 2644.365219,55.958874 2642.214110,55.918310 2639.439722,55.566407 2637.576579,54.277450 2636.478302,51.593750 2636.114774,49.112533 2636.108022,41.733702 2634.089504,40.464008 2622.910771,39.975833 2617.148629,38.014193 2612.390847,34.529177 2608.772176,30.111403 2606.907043,23.607392 2606.629193,18.032067 2610.826903,-98.705278 2615.352886,-98.398034 2617.607621,-178.333975 2617.961821,-198.088897 2619.007976,-256.965616 2628.261418,-624.472180 2630.542526,-626.481898 2635.539607,-626.964674 2635.772888,-641.273835 2578.245380,-642.402543 2567.771930,-642.133893 2567.226843,-640.790480 2563.278549,-640.798308 2562.041246,-642.885438 2563.444208,-642.814618 2563.372337,-649.162756 2561.911627,-649.556442 2561.969254,-656.002003 2562.596638,-656.389628 2562.691435,-663.355989 2561.649541,-663.231378 2560.881057,-715.362717 2560.007333,-774.009254 2569.535537,-773.951764 2569.616864,-767.137426 2589.722146,-768.001269 2590.041970,-773.842715 2607.429999,-773.748013 2608.623030,-770.762954 2614.668619,-770.748866 2617.012899,-773.689443 2618.024951,-773.681462 2622.091808,-773.671379 2632.385942,-773.610482 2631.065719,-779.039014 2630.501854,-792.664163 2638.335812,-792.705115 2639.483688,-879.718762 2640.704788,-879.673552 2640.633837,-887.519604 2639.594175,-888.482344 2640.541364,-960.498272 2640.565457,-972.902896 2639.851785,-980.516956 2638.684783,-986.819163 2617.403679,-1084.230636 2612.276345,-1083.140023 2607.301813,-1101.286595 2565.066115,-1121.866224 2562.153299,-1129.410747 2563.306706,-1132.063096 2566.619467,-1132.677522 2566.085439,-1135.794399 2518.539754,-1156.251925 2515.699583,-1157.004454 2520.884417,-1148.074565 2502.479585,-1134.407273 2500.814880,-1133.173709 2501.090283,-1125.523541 2502.691081,-1124.816550 2503.519369,-1123.280830 2502.756318,-1121.985901 2501.236085,-1121.160160 2503.217988,-1075.807731 2504.992607,-1075.130752 2505.544067,-1073.422713 2504.816857,-1072.093822 2503.346180,-1071.477968 2504.778085,-1025.492338 2506.437111,-1024.972876 2507.031146,-1022.620481 2506.396978,-1021.389700 2504.943421,-1020.229831 2506.357134,-974.732753 2508.178016,-974.576402 2508.858003,-973.398538 2509.033494,-968.191318 2508.312767,-967.206274 2506.416376,-966.742685 2507.956631,-921.187739 2509.553575,-921.246425 2510.552271,-920.528580 2510.751058,-914.621887 2510.021560,-913.170987 2508.242850,-912.660798 2509.739731,-868.194050 2510.966602,-867.971216 2511.821451,-866.878823 2511.893023,-864.869141 2511.245438,-863.893816 2509.900744,-863.186825 2511.343080,-817.278649 2512.304125,-816.983151 2513.360429,-816.419561 2513.705000,-815.347876 2513.717435,-814.071628 2512.748086,-812.958120 2511.489619,-812.471420 2513.312161,-772.226016 2546.385027,-772.146633 2546.092618,-761.466913 2544.687548,-761.426811 2545.187049,-748.734931 2547.240036,-749.284326 2549.391299,-692.133842 2550.474459,-663.475238 2549.603671,-663.236442 2549.665214,-658.275471 2550.495697,-657.827088 2550.475923,-650.970271 2549.436748,-650.989852 2549.493339,-648.669768 2548.664031,-648.696490 2549.160244,-642.606655 2550.719214,-642.588376 2549.594125,-640.468091 2546.049136,-640.102151 2546.517651,-630.606436 2520.417653,-630.499008 2517.432425,-627.415143 2519.246063,-564.922862 2542.952391,-527.050157 2545.598633,-519.887901 2547.133800,-511.348513 2536.106851,-254.733377 2534.218964,-254.713473 2531.132266,-207.525797 2532.576092,-182.044865 2532.461288,-179.339658 2530.164455,-125.679347 2523.920194,19.879544 2522.228814,24.474615 2519.689670,29.541926 2514.401177,34.379898 2508.795327,36.704247 2502.285050,37.668968 2490.385405,37.211756 2490.367894,32.817496 2467.398254,31.907654 2251.990715,22.282360 2240.821015,22.283040 2197.995799,21.177900 2196.579398,23.281647 2177.551485,22.712974 2176.950591,22.180173 2176.561615,20.075759 2175.804934,19.584412 2092.635798,15.857085 2077.930159,10.421159 1297.516454,-278.276610 1282.763088,-239.284924 1370.019228,-206.806282 1507.258716,-155.704118 1828.085721,-36.257407 1937.319318,5.593656 1941.887135,7.554618 1942.805871,9.613488 1975.182211,21.372792 2070.915622,56.170271 2084.273501,61.026070 2089.621202,61.270830 2465.852374,78.636160 2480.674484,79.325932 2503.513680,80.377602 2507.468987,82.416082 2510.719233,85.095931 2513.571652,89.532514 2515.143477,93.700861 2515.144436,102.843807 2492.985212,622.186356 2493.935710,631.258436 2500.106287,659.424889 2504.359818,683.361010 2508.835115,683.434256 2508.835241,688.749145 2508.812956,713.636597 2508.812537,718.496548 2496.700314,718.723210 2496.789079,724.172919 2505.767184,724.308831 2504.156694,757.998607 2499.558016,757.701120 2490.034069,980.047878 2493.340545,980.210055 2490.783764,1030.248315 2487.786341,1030.136345 2479.689908,1191.738365 2483.935020,1191.918233 2481.903903,1201.488920 2477.943363,1207.494778 2473.958959,1211.380890 2470.069582,1213.127304 2463.870972,1214.530616 2453.297830,1214.397949 2452.625733,1223.938770 2451.345976,1227.021479 2448.964719,1230.016858 2445.826104,1231.111681 2427.938378,1231.129708 2413.003778,1224.412776 2388.502022,1220.300699 2373.979556,1218.806621 2351.619159,1218.141386 2346.090723,1216.395097 2337.886751,1214.875822 2336.659545,1238.409084 2427.125596,1242.332249 2442.454665,1244.562840 2447.602429,1247.156394 2450.168768,1250.788697 2451.617386,1254.710621 2463.879769,1255.185804 2469.119786,1257.237415 2473.157885,1260.176234 2478.026534,1264.517683 2480.737914,1272.546668 2478.369460,1318.882496 2474.617503,1319.144658 2470.868566,1424.217863 2473.485097,1424.699914 2461.414907,1707.659670 2457.912093,1707.771184 2452.139429,1852.018903 2455.572752,1852.205667 2449.795801,1981.684803 2448.265854,2015.942037 2445.329203,2016.008741 2444.643816,2025.771237 2443.933722,2035.877238 2448.701217,2035.889425 2443.008518,2196.205459 2440.365832,2196.155648 2435.408914,2301.960720 2435.224299,2305.951735 2432.090610,2305.837192 2430.382375,2347.136926 2429.901105,2358.645317 2429.099619,2358.608018 2428.833116,2363.074611 2432.658711,2363.235484 2429.413357,2437.238924 2426.450969,2437.227470 2413.340488,2685.449142 2413.300608,2686.114140 2414.580860,2701.372840 2402.419274,2977.119042 2405.414797,2977.297560 2404.401753,3008.313502 2401.194576,3008.241953 2398.900811,3073.353437 2397.741181,3084.582752 2385.780168,3338.573936 2393.213319,3338.813913 2384.779445,3522.701582 2382.319584,3522.644117 2376.756501,3643.694720 2379.552610,3643.802907 2378.430753,3671.887524 2372.498092,3671.842265 2371.315482,3708.469535 2375.615962,3708.550601 2372.515185,3784.077023 2370.756740,3784.043875 2364.798179,3912.055253 2361.398110,3912.079926 2356.305190,4041.072981 2341.835280,4369.192935 2344.320779,4369.328557 2343.161255,4394.094829 2341.485760,4394.018860 2341.396178,4395.870179 2343.081411,4395.913043 2340.115840,4466.204838 2337.694559,4466.048235 2336.949347,4485.274395 2337.390166,4494.281441 2341.362316,4505.474367 2346.308519,4516.241825 2351.870813,4525.267757 2358.965544,4535.188062 2365.143788,4545.379586 2372.248644,4555.244615 2375.133908,4559.792841 2379.956185,4567.462241 2386.140028,4577.354300 2439.548706,4655.932772 2442.665533,4654.482530 2581.257656,4862.349480 2585.003241,4866.692112 2595.824574,4882.896692 2592.046637,4885.577134 2613.122272,4919.051924 2615.087502,4922.118212 2631.651710,4945.954305 2651.851906,4974.619248 2655.574530,4972.936417 2687.453245,5020.163559 2684.138791,5022.431075 2737.913178,5105.967332 2741.997567,5102.982060 2793.474501,5179.285151 2796.449111,5182.459337 2801.639150,5186.063767 2802.814344,5188.493796 2803.038444,5191.582692 2815.052240,5192.875054 2820.945384,5193.030870 2822.161262,5193.309067 2824.886806,5194.714305 2830.317336,5198.611793 2835.430460,5203.390955 2840.964393,5208.566434 2848.666960,5220.018827 2854.519886,5229.527751 2872.148296,5255.814493 2923.892052,5333.321860 2949.622746,5371.091017 3074.840530,5558.330709 3078.206637,5557.662131 3081.953130,5565.777634 3083.402230,5572.984143 3083.675846,5577.782765 3085.336476,5577.669971 3082.610704,5609.962962 3076.574597,5609.671102 3074.617714,5633.124110 3078.204249,5633.325190 3071.684807,5702.817544 3065.097596,5737.400838 3060.972356,5772.862958 3060.193985,5781.724957 3059.581112,5784.254316 3058.891778,5785.528388 3057.634393,5787.446362 3056.145003,5789.104735 3054.453112,5790.870233 3052.799472,5792.059467 3050.585689,5792.993983 3048.752103,5793.580630 3045.405983,5794.160825"/>
    <poly id="313195170" type="building.apartments" color="255,230,230" fill="1" layer="-1.00" shape="1472.988487,3659.080879 1457.782346,3658.285358 1456.980802,3673.327299 1462.062764,3673.533541 1462.239728,3669.442517 1472.356231,3669.953982 1472.988487,3659.080879"/>
    <poly id="313195171" type="building.apartments" color="255,230,230" fill="1" layer="-1.00" shape="1510.836500,3666.104140 1500.327380,3665.629652 1499.937763,3674.254862 1503.416573,3674.408870 1503.397477,3674.941110 1506.575825,3675.078388 1506.620425,3674.158275 1510.463266,3674.341305 1510.836500,3666.104140"/>
    <poly id="313195172" type="building.apartments" color="255,230,230" fill="1" layer="-1.00" shape="1481.381473,3712.620051 1481.667102,3701.762639 1475.129154,3699.975674 1469.182733,3701.639498 1468.993679,3711.722015 1473.275503,3711.824495 1473.129235,3715.250348 1476.864805,3715.320395 1476.989692,3712.548792 1481.381473,3712.620051"/>
    <poly id="313195173" type="building.apartments" color="255,230,230" fill="1" layer="-1.00" shape="1537.478326,3661.222394 1539.452205,3662.890500 1540.358047,3661.731340 1544.603768,3665.217388 1545.518097,3664.091674 1546.764787,3665.169160 1555.086400,3656.415356 1555.241230,3652.534736 1549.976198,3652.369391 1549.894809,3654.764554 1545.710574,3651.401710 1537.478326,3661.222394"/>
    <poly id="313195174" type="building.house" color="255,230,230" fill="1" layer="-1.00" shape="1544.538250,3645.387996 1544.727834,3637.225056 1535.327544,3636.915575 1535.028843,3645.065372 1544.538250,3645.387996"/>
    <poly id="313195175" type="building.yes" color="255,230,230" fill="1" layer="-1.00" shape="1501.018083,3661.847849 1509.981848,3652.384822 1501.298946,3643.955624 1489.058565,3657.063203 1501.018083,3661.847849"/>
    <poly id="313195177" type="building.yes" color="255,230,230" fill="1" layer="-1.00" shape="1582.203250,3654.394266 1598.887704,3655.095682 1599.261482,3646.348121 1582.567900,3645.646534 1582.203250,3654.394266"/>
    <poly id="313195178" type="building.yes" color="255,230,230" fill="1" layer="-1.00" shape="1590.912252,3635.683745 1583.087578,3635.437066 1582.863343,3643.987709 1590.652189,3644.200428 1590.912252,3635.683745"/>
    <poly id="313195180" type="building.house" color="255,230,230" fill="1" layer="-1.00" shape="1592.924691,3662.983852 1596.924717,3663.047814 1596.936164,3662.437760 1602.202648,3662.525489 1602.291363,3657.312134 1593.024847,3657.160444 1592.924691,3662.983852"/>
    <poly id="313195181" type="building.house" color="255,230,230" fill="1" layer="-1.00" shape="1548.199984,3649.395689 1557.673983,3649.662183 1557.952000,3639.215171 1553.342760,3639.073223 1553.284839,3640.703217 1548.420486,3640.556486 1548.199984,3649.395689"/>
    <poly id="313195182" type="building.yes" color="255,230,230" fill="1" layer="-1.00" shape="1542.737449,3722.436620 1552.950562,3711.965164 1549.678304,3708.575042 1546.498007,3709.514002 1539.051117,3718.284221 1540.086819,3721.377181 1542.737449,3722.436620"/>
    <poly id="313195184" type="building.house" color="255,230,230" fill="1" layer="-1.00" shape="1589.031638,3679.077363 1589.299449,3669.662066 1588.443205,3669.634904 1588.548168,3665.498145 1587.145252,3665.460726 1587.031177,3669.597313 1584.088469,3669.531003 1583.829775,3678.946471 1589.031638,3679.077363"/>
    <poly id="313195408" type="building.yes" color="255,230,230" fill="1" layer="-1.00" shape="1568.184131,3677.288140 1568.465057,3669.115818 1554.592660,3668.644742 1554.311746,3676.817065 1568.184131,3677.288140"/>
    <poly id="361824235" type="building.yes" color="255,230,230" fill="1" layer="-1.00" shape="2425.202928,4085.790076 2424.261586,4085.927665 2423.441102,4086.422601 2422.879811,4087.188726 2422.652692,4088.116494 2422.799116,4089.051307 2423.294261,4089.859546 2424.058220,4090.428746 2424.992868,4090.646097 2425.934209,4090.508507 2426.745582,4090.013400 2427.306873,4089.247275 2427.533784,4088.330599 2427.387570,4087.384694 2426.892425,4086.576455 2426.128256,4086.018347 2425.202928,4085.790076"/>
    <poly id="361824235#1" type="man_made.gasometer" color="255,230,230" fill="1" layer="-1.00" shape="2425.202928,4085.790076 2424.261586,4085.927665 2423.441102,4086.422601 2422.879811,4087.188726 2422.652692,4088.116494 2422.799116,4089.051307 2423.294261,4089.859546 2424.058220,4090.428746 2424.992868,4090.646097 2425.934209,4090.508507 2426.745582,4090.013400 2427.306873,4089.247275 2427.533784,4088.330599 2427.387570,4087.384694 2426.892425,4086.576455 2426.128256,4086.018347 2425.202928,4085.790076"/>
    <poly id="361824240" type="building.yes" color="255,230,230" fill="1" layer="-1.00" shape="2432.982514,4085.992270 2432.040962,4086.140950 2431.220478,4086.635886 2430.659187,4087.402010 2430.432276,4088.318686 2430.578699,4089.253499 2431.073633,4090.072831 2431.846913,4090.631111 2432.772240,4090.859383 2433.713791,4090.710702 2434.525164,4090.215595 2435.095567,4089.449643 2435.313367,4088.532795 2435.176056,4087.598154 2434.681121,4086.778823 2433.907842,4086.220542 2432.982514,4085.992270"/>
    <poly id="361824240#1" type="man_made.gasometer" color="255,230,230" fill="1" layer="-1.00" shape="2432.982514,4085.992270 2432.040962,4086.140950 2431.220478,4086.635886 2430.659187,4087.402010 2430.432276,4088.318686 2430.578699,4089.253499 2431.073633,4090.072831 2431.846913,4090.631111 2432.772240,4090.859383 2433.713791,4090.710702 2434.525164,4090.215595 2435.095567,4089.449643 2435.313367,4088.532795 2435.176056,4087.598154 2434.681121,4086.778823 2433.907842,4086.220542 2432.982514,4085.992270"/>
    <poly id="361824291" type="building.yes" color="255,230,230" fill="1" layer="-1.00" shape="2432.439061,3834.017466 2440.524665,3834.436247 2441.268490,3820.125535 2433.173762,3819.706582 2432.439061,3834.017466"/>
    <poly id="361824293" type="building.yes" color="255,230,230" fill="1" layer="-1.00" shape="2425.834659,3938.715400 2459.952497,3940.468432 2460.628207,3927.354785 2426.510110,3925.612844 2425.834659,3938.715400"/>
    <poly id="361824294" type="building.yes" color="255,230,230" fill="1" layer="-1.00" shape="2464.233913,3852.159640 2464.894657,3839.356396 2430.412204,3837.585395 2429.751299,3850.399732 2464.233913,3852.159640"/>
    <poly id="361824296" type="building.yes" color="255,230,230" fill="1" layer="-1.00" shape="2423.062782,4015.623940 2445.125057,4016.750148 2446.045588,3998.869901 2423.983270,3997.743692 2423.062782,4015.623940"/>
    <poly id="361824300" type="building.yes" color="255,230,230" fill="1" layer="-1.00" shape="2455.382166,3999.156955 2456.301670,3981.332169 2424.851812,3979.718220 2423.932369,3997.543007 2455.382166,3999.156955"/>
    <poly id="361824333" type="building.yes" color="255,230,230" fill="1" layer="-1.00" shape="2460.879945,3868.584813 2430.167269,3867.006964 2429.449421,3880.907620 2460.162050,3882.485469 2460.879945,3868.584813"/>
    <poly id="361824334" type="building.yes" color="255,230,230" fill="1" layer="-1.00" shape="2426.528179,3957.036629 2446.496335,3958.056767 2447.406082,3940.265085 2427.437886,3939.244946 2426.528179,3957.036629"/>
    <poly id="361824340" type="building.yes" color="255,230,230" fill="1" layer="-1.00" shape="2463.377831,3868.554255 2464.063491,3855.396414 2429.726667,3853.639255 2429.050168,3866.797269 2463.377831,3868.554255"/>
    <poly id="361824358" type="building.yes" color="255,230,230" fill="1" layer="-1.00" shape="2466.226791,3792.889913 2439.483790,3791.520071 2438.103551,3818.312705 2457.707780,3819.314891 2457.597027,3821.321151 2464.735718,3821.688806 2466.226791,3792.889913"/>