<?xml version="1.0" encoding="UTF-8"?>

<!-- generated on Mon Apr 27 00:51:11 2020 by Eclipse SUMO netconvert Version 1.5.0
<configuration xmlns:xsi="http://www.w3.org/2001/XMLSchema-instance" xsi:noNamespaceSchemaLocation="http://sumo.dlr.de/xsd/netconvertConfiguration.xsd">

    <input>
        <type-files value="/usr/share/sumo/data/typemap/osmNetconvert.typ.xml"/>
        <osm-files value="osm_bbox.osm.xml"/>
    </input>

    <output>
        <output-file value="osm.net.xml"/>
        <output.street-names value="true"/>
        <output.original-names value="true"/>
    </output>

    <projection>
        <proj.utm value="true"/>
    </projection>

    <processing>
        <geometry.remove value="true"/>
        <roundabouts.guess value="true"/>
        <lefthand value="true"/>
    </processing>

    <tls_building>
        <tls.discard-simple value="true"/>
        <tls.join value="true"/>
        <tls.guess-signals value="true"/>
        <tls.default-type value="actuated"/>
    </tls_building>

    <ramp_guessing>
        <ramps.guess value="true"/>
    </ramp_guessing>

    <junctions>
        <junctions.join value="true"/>
        <junctions.corner-detail value="5"/>
    </junctions>

    <report>
        <verbose value="true"/>
        <aggregate-warnings value="5"/>
    </report>

</configuration>
-->

<net version="1.3" junctionCornerDetail="5" lefthand="true" limitTurnSpeed="5.50" xmlns:xsi="http://www.w3.org/2001/XMLSchema-instance" xsi:noNamespaceSchemaLocation="http://sumo.dlr.de/xsd/net_file.xsd">

    <location netOffset="-668510.12,-3886540.31" convBoundary="0.00,-0.00,3761.23,5711.30" origBoundary="136.849710,35.107284,136.890990,35.158574" projParameter="+proj=utm +zone=53 +ellps=WGS84 +datum=WGS84 +units=m +no_defs"/>

    <type id="highway.bridleway" priority="1" numLanes="1" speed="2.78" allow="pedestrian" oneway="1" width="2.00"/>
    <type id="highway.bus_guideway" priority="1" numLanes="1" speed="27.78" allow="bus" oneway="1"/>
    <type id="highway.cycleway" priority="1" numLanes="1" speed="8.33" allow="bicycle" oneway="0" width="1.00"/>
    <type id="highway.footway" priority="1" numLanes="1" speed="2.78" allow="pedestrian" oneway="1" width="2.00"/>
    <type id="highway.ford" priority="1" numLanes="1" speed="2.78" allow="army" oneway="0"/>
    <type id="highway.living_street" priority="2" numLanes="1" speed="2.78" disallow="tram rail_urban rail rail_electric rail_fast ship" oneway="0"/>
    <type id="highway.motorway" priority="14" numLanes="2" speed="39.44" allow="private emergency authority army vip passenger hov taxi bus coach delivery truck trailer motorcycle evehicle custom1 custom2" oneway="1"/>
    <type id="highway.motorway_link" priority="9" numLanes="1" speed="22.22" allow="private emergency authority army vip passenger hov taxi bus coach delivery truck trailer motorcycle evehicle custom1 custom2" oneway="1"/>
    <type id="highway.path" priority="1" numLanes="1" speed="2.78" allow="pedestrian bicycle" oneway="1" width="2.00"/>
    <type id="highway.pedestrian" priority="1" numLanes="1" speed="2.78" allow="pedestrian" oneway="1" width="2.00"/>
    <type id="highway.primary" priority="12" numLanes="2" speed="27.78" disallow="tram rail_urban rail rail_electric rail_fast ship" oneway="0"/>
    <type id="highway.primary_link" priority="7" numLanes="1" speed="22.22" disallow="tram rail_urban rail rail_electric rail_fast ship" oneway="0"/>
    <type id="highway.raceway" priority="15" numLanes="2" speed="83.33" allow="vip" oneway="0"/>
    <type id="highway.residential" priority="3" numLanes="1" speed="13.89" disallow="tram rail_urban rail rail_electric rail_fast ship" oneway="0"/>
    <type id="highway.secondary" priority="11" numLanes="1" speed="27.78" disallow="tram rail_urban rail rail_electric rail_fast ship" oneway="0"/>
    <type id="highway.secondary_link" priority="6" numLanes="1" speed="22.22" disallow="tram rail_urban rail rail_electric rail_fast ship" oneway="0"/>
    <type id="highway.service" priority="1" numLanes="1" speed="5.56" allow="pedestrian delivery bicycle" oneway="0"/>
    <type id="highway.stairs" priority="1" numLanes="1" speed="1.39" allow="pedestrian" oneway="1" width="2.00"/>
    <type id="highway.step" priority="1" numLanes="1" speed="1.39" allow="pedestrian" oneway="1" width="2.00"/>
    <type id="highway.steps" priority="1" numLanes="1" speed="1.39" allow="pedestrian" oneway="1" width="2.00"/>
    <type id="highway.tertiary" priority="10" numLanes="1" speed="22.22" disallow="tram rail_urban rail rail_electric rail_fast ship" oneway="0"/>
    <type id="highway.tertiary_link" priority="5" numLanes="1" speed="22.22" disallow="tram rail_urban rail rail_electric rail_fast ship" oneway="0"/>
    <type id="highway.track" priority="1" numLanes="1" speed="5.56" disallow="tram rail_urban rail rail_electric rail_fast ship" oneway="0"/>
    <type id="highway.trunk" priority="13" numLanes="2" speed="27.78" disallow="pedestrian bicycle tram rail_urban rail rail_electric rail_fast ship" oneway="0"/>
    <type id="highway.trunk_link" priority="8" numLanes="1" speed="22.22" disallow="pedestrian bicycle tram rail_urban rail rail_electric rail_fast ship" oneway="0"/>
    <type id="highway.unclassified" priority="4" numLanes="1" speed="13.89" disallow="tram rail_urban rail rail_electric rail_fast ship" oneway="0"/>
    <type id="highway.unsurfaced" priority="1" numLanes="1" speed="8.33" disallow="tram rail_urban rail rail_electric rail_fast ship" oneway="0"/>
    <type id="railway.highspeed" priority="21" numLanes="1" speed="69.44" allow="rail_fast" oneway="1"/>
    <type id="railway.light_rail" priority="19" numLanes="1" speed="27.78" allow="rail_urban" oneway="1"/>
    <type id="railway.preserved" priority="16" numLanes="1" speed="27.78" allow="rail" oneway="1"/>
    <type id="railway.rail" priority="20" numLanes="1" speed="44.44" allow="rail" oneway="1"/>
    <type id="railway.subway" priority="18" numLanes="1" speed="27.78" allow="rail_urban" oneway="1"/>
    <type id="railway.tram" priority="17" numLanes="1" speed="13.89" allow="tram" oneway="1"/>

    <edge id=":1159149019_0" function="internal">
        <lane id=":1159149019_0_0" index="0" disallow="tram rail_urban rail rail_electric rail_fast ship" speed="3.65" length="4.67" shape="1292.69,4819.46 1293.51,4820.65 1294.32,4821.04 1295.11,4820.62 1295.89,4819.41"/>
    </edge>
    <edge id=":1159149070_0" function="internal">
        <lane id=":1159149070_0_0" index="0" disallow="tram rail_urban rail rail_electric rail_fast ship" speed="8.37" length="11.15" shape="1919.63,4115.83 1916.34,4116.68 1913.51,4116.74 1911.14,4116.00 1909.24,4114.47"/>
    </edge>
    <edge id=":1159149070_1" function="internal">
        <lane id=":1159149070_1_0" index="0" disallow="tram rail_urban rail rail_electric rail_fast ship" speed="3.65" length="2.56" shape="1919.63,4115.83 1918.77,4116.99 1918.66,4117.87 1918.81,4118.03"/>
    </edge>
    <edge id=":1159149070_4" function="internal">
        <lane id=":1159149070_4_0" index="0" disallow="tram rail_urban rail rail_electric rail_fast ship" speed="3.65" length="2.12" shape="1918.81,4118.03 1919.30,4118.50 1920.70,4118.85"/>
    </edge>
    <edge id=":1159149070_2" function="internal">
        <lane id=":1159149070_2_0" index="0" disallow="tram rail_urban rail rail_electric rail_fast ship" speed="5.89" length="9.11" shape="1918.75,4125.80 1917.38,4123.54 1917.25,4121.63 1918.35,4120.07 1920.70,4118.85"/>
    </edge>
    <edge id=":1159149070_3" function="internal">
        <lane id=":1159149070_3_0" index="0" disallow="tram rail_urban rail rail_electric rail_fast ship" speed="22.22" length="14.79" shape="1918.75,4125.80 1909.24,4114.47"/>
    </edge>
    <edge id=":1162944144_0" function="internal">
        <lane id=":1162944144_0_0" index="0" disallow="tram rail_urban rail rail_electric rail_fast ship" speed="6.54" length="9.10" shape="2353.23,3070.03 2352.77,3072.48 2351.64,3074.20 2349.83,3075.19 2347.36,3075.45"/>
    </edge>
    <edge id=":1162944144_1" function="internal">
        <lane id=":1162944144_1_0" index="0" disallow="tram rail_urban rail rail_electric rail_fast ship" speed="22.22" length="14.45" shape="2353.23,3070.03 2352.59,3084.46"/>
    </edge>
    <edge id=":1162944144_2" function="internal">
        <lane id=":1162944144_2_0" index="0" disallow="tram rail_urban rail rail_electric rail_fast ship" speed="7.98" length="5.93" shape="2353.23,3070.03 2353.61,3073.91 2354.58,3075.69"/>
    </edge>
    <edge id=":1162944144_3" function="internal">
        <lane id=":1162944144_3_0" index="0" disallow="tram rail_urban rail rail_electric rail_fast ship" speed="3.65" length="2.34" shape="2353.23,3070.03 2353.98,3071.26 2354.76,3071.70"/>
    </edge>
    <edge id=":1162944144_16" function="internal">
        <lane id=":1162944144_16_0" index="0" disallow="tram rail_urban rail rail_electric rail_fast ship" speed="7.98" length="8.30" shape="2354.58,3075.69 2355.15,3076.73 2357.84,3078.49 2361.68,3079.17"/>
    </edge>
    <edge id=":1162944144_17" function="internal">
        <lane id=":1162944144_17_0" index="0" disallow="tram rail_urban rail rail_electric rail_fast ship" speed="3.65" length="2.34" shape="2354.76,3071.70 2355.57,3071.33 2356.43,3070.17"/>
    </edge>
    <edge id=":1162944144_4" function="internal">
        <lane id=":1162944144_4_0" index="0" disallow="tram rail_urban rail rail_electric rail_fast ship" speed="6.49" length="9.03" shape="2361.79,3075.97 2359.35,3075.54 2357.64,3074.43 2356.67,3072.64 2356.43,3070.17"/>
    </edge>
    <edge id=":1162944144_5" function="internal">
        <lane id=":1162944144_5_0" index="0" disallow="tram rail_urban rail rail_electric rail_fast ship" speed="22.22" length="14.44" shape="2361.79,3075.97 2347.36,3075.45"/>
    </edge>
    <edge id=":1162944144_6" function="internal">
        <lane id=":1162944144_6_0" index="0" disallow="tram rail_urban rail rail_electric rail_fast ship" speed="8.04" length="5.93" shape="2361.79,3075.97 2357.91,3076.39 2356.13,3077.37"/>
    </edge>
    <edge id=":1162944144_7" function="internal">
        <lane id=":1162944144_7_0" index="0" disallow="tram rail_urban rail rail_electric rail_fast ship" speed="3.65" length="2.34" shape="2361.79,3075.97 2360.56,3076.73 2360.14,3077.52"/>
    </edge>
    <edge id=":1162944144_18" function="internal">
        <lane id=":1162944144_18_0" index="0" disallow="tram rail_urban rail rail_electric rail_fast ship" speed="8.04" length="8.31" shape="2356.13,3077.37 2355.09,3077.94 2353.31,3080.63 2352.59,3084.46"/>
    </edge>
    <edge id=":1162944144_19" function="internal">
        <lane id=":1162944144_19_0" index="0" disallow="tram rail_urban rail rail_electric rail_fast ship" speed="3.65" length="2.34" shape="2360.14,3077.52 2360.51,3078.33 2361.68,3079.17"/>
    </edge>
    <edge id=":1162944144_8" function="internal">
        <lane id=":1162944144_8_0" index="0" disallow="tram rail_urban rail rail_electric rail_fast ship" speed="6.56" length="9.12" shape="2355.79,3084.60 2356.25,3082.15 2357.39,3080.43 2359.20,3079.44 2361.68,3079.17"/>
    </edge>
    <edge id=":1162944144_9" function="internal">
        <lane id=":1162944144_9_0" index="0" disallow="tram rail_urban rail rail_electric rail_fast ship" speed="22.22" length="14.45" shape="2355.79,3084.60 2356.43,3070.17"/>
    </edge>
    <edge id=":1162944144_10" function="internal">
        <lane id=":1162944144_10_0" index="0" disallow="tram rail_urban rail rail_electric rail_fast ship" speed="7.99" length="5.93" shape="2355.79,3084.60 2355.41,3080.72 2354.44,3078.94"/>
    </edge>
    <edge id=":1162944144_11" function="internal">
        <lane id=":1162944144_11_0" index="0" disallow="tram rail_urban rail rail_electric rail_fast ship" speed="3.65" length="2.34" shape="2355.79,3084.60 2355.04,3083.37 2354.26,3082.94"/>
    </edge>
    <edge id=":1162944144_20" function="internal">
        <lane id=":1162944144_20_0" index="0" disallow="tram rail_urban rail rail_electric rail_fast ship" speed="7.99" length="8.28" shape="2354.44,3078.94 2353.88,3077.91 2351.19,3076.15 2347.36,3075.45"/>
    </edge>
    <edge id=":1162944144_21" function="internal">
        <lane id=":1162944144_21_0" index="0" disallow="tram rail_urban rail rail_electric rail_fast ship" speed="3.65" length="2.34" shape="2354.26,3082.94 2353.44,3083.30 2352.59,3084.46"/>
    </edge>
    <edge id=":1162944144_12" function="internal">
        <lane id=":1162944144_12_0" index="0" disallow="tram rail_urban rail rail_electric rail_fast ship" speed="6.50" length="9.03" shape="2347.24,3078.64 2349.67,3079.09 2351.38,3080.21 2352.35,3082.00 2352.59,3084.46"/>
    </edge>
    <edge id=":1162944144_13" function="internal">
        <lane id=":1162944144_13_0" index="0" disallow="tram rail_urban rail rail_electric rail_fast ship" speed="22.22" length="14.46" shape="2347.24,3078.64 2361.68,3079.17"/>
    </edge>
    <edge id=":1162944144_14" function="internal">
        <lane id=":1162944144_14_0" index="0" disallow="tram rail_urban rail rail_electric rail_fast ship" speed="8.03" length="5.96" shape="2347.24,3078.64 2351.11,3078.24 2352.92,3077.25"/>
    </edge>
    <edge id=":1162944144_15" function="internal">
        <lane id=":1162944144_15_0" index="0" disallow="tram rail_urban rail rail_electric rail_fast ship" speed="3.65" length="2.34" shape="2347.24,3078.64 2348.47,3077.89 2348.90,3077.11"/>
    </edge>
    <edge id=":1162944144_22" function="internal">
        <lane id=":1162944144_22_0" index="0" disallow="tram rail_urban rail rail_electric rail_fast ship" speed="8.03" length="8.28" shape="2352.92,3077.25 2353.93,3076.69 2355.71,3074.00 2356.43,3070.17"/>
    </edge>
    <edge id=":1162944144_23" function="internal">
        <lane id=":1162944144_23_0" index="0" disallow="tram rail_urban rail rail_electric rail_fast ship" speed="3.65" length="2.34" shape="2348.90,3077.11 2348.53,3076.29 2347.36,3075.45"/>
    </edge>
    <edge id=":1162970722_0" function="internal">
        <lane id=":1162970722_0_0" index="0" disallow="tram rail_urban rail rail_electric rail_fast ship" speed="22.22" length="12.28" shape="2053.36,4068.26 2041.77,4072.32"/>
    </edge>
    <edge id=":1162970722_1" function="internal">
        <lane id=":1162970722_1_0" index="0" disallow="tram rail_urban rail rail_electric rail_fast ship" speed="8.00" length="4.41" shape="2053.36,4068.26 2051.03,4069.65 2050.12,4071.09"/>
    </edge>
    <edge id=":1162970722_2" function="internal">
        <lane id=":1162970722_2_0" index="0" disallow="tram rail_urban rail rail_electric rail_fast ship" speed="3.65" length="2.34" shape="2053.36,4068.26 2052.48,4069.41 2052.36,4070.29"/>
    </edge>
    <edge id=":1162970722_9" function="internal">
        <lane id=":1162970722_9_0" index="0" disallow="tram rail_urban rail rail_electric rail_fast ship" speed="8.00" length="8.24" shape="2050.12,4071.09 2049.60,4071.93 2049.08,4075.08 2049.48,4079.12"/>
    </edge>
    <edge id=":1162970722_10" function="internal">
        <lane id=":1162970722_10_0" index="0" disallow="tram rail_urban rail rail_electric rail_fast ship" speed="3.65" length="2.34" shape="2052.36,4070.29 2053.00,4070.92 2054.39,4071.29"/>
    </edge>
    <edge id=":1162970722_3" function="internal">
        <lane id=":1162970722_3_0" index="0" disallow="tram rail_urban rail rail_electric rail_fast ship" speed="6.19" length="9.05" shape="2042.86,4075.33 2045.34,4074.82 2047.28,4075.29 2048.65,4076.72 2049.48,4079.12"/>
    </edge>
    <edge id=":1162970722_4" function="internal">
        <lane id=":1162970722_4_0" index="0" disallow="tram rail_urban rail rail_electric rail_fast ship" speed="22.22" length="12.23" shape="2042.86,4075.33 2054.39,4071.29"/>
    </edge>
    <edge id=":1162970722_5" function="internal">
        <lane id=":1162970722_5_0" index="0" disallow="tram rail_urban rail rail_electric rail_fast ship" speed="3.65" length="2.34" shape="2042.86,4075.33 2043.71,4074.18 2043.82,4073.29"/>
    </edge>
    <edge id=":1162970722_11" function="internal">
        <lane id=":1162970722_11_0" index="0" disallow="tram rail_urban rail rail_electric rail_fast ship" speed="3.65" length="2.34" shape="2043.82,4073.29 2043.17,4072.67 2041.77,4072.32"/>
    </edge>
    <edge id=":1162970722_6" function="internal">
        <lane id=":1162970722_6_0" index="0" disallow="tram rail_urban rail rail_electric rail_fast ship" speed="7.38" length="10.36" shape="2046.79,4064.37 2046.86,4067.04 2046.04,4069.25 2044.35,4071.01 2041.77,4072.32"/>
    </edge>
    <edge id=":1162970722_7" function="internal">
        <lane id=":1162970722_7_0" index="0" disallow="tram rail_urban rail rail_electric rail_fast ship" speed="13.89" length="14.99" shape="2046.79,4064.37 2049.48,4079.12"/>
    </edge>
    <edge id=":1162970722_8" function="internal">
        <lane id=":1162970722_8_0" index="0" disallow="tram rail_urban rail rail_electric rail_fast ship" speed="7.04" length="12.03" shape="2046.79,4064.37 2047.86,4068.17 2049.48,4070.59 2051.66,4071.63 2054.39,4071.29"/>
    </edge>
    <edge id=":1534157123_0" function="internal">
        <lane id=":1534157123_0_0" index="0" disallow="tram rail_urban rail rail_electric rail_fast ship" speed="13.89" length="11.09" shape="1711.89,3975.24 1704.82,3966.70"/>
    </edge>
    <edge id=":1534157123_1" function="internal">
        <lane id=":1534157123_1_0" index="0" disallow="tram rail_urban rail rail_electric rail_fast ship" speed="7.37" length="3.96" shape="1711.89,3975.24 1709.91,3973.75 1708.44,3973.58"/>
    </edge>
    <edge id=":1534157123_2" function="internal">
        <lane id=":1534157123_2_0" index="0" disallow="tram rail_urban rail rail_electric rail_fast ship" speed="3.65" length="2.34" shape="1711.89,3975.24 1710.50,3974.84 1709.63,3975.05"/>
    </edge>
    <edge id=":1534157123_6" function="internal">
        <lane id=":1534157123_6_0" index="0" disallow="tram rail_urban rail rail_electric rail_fast ship" speed="7.37" length="7.75" shape="1708.44,3973.58 1707.52,3973.48 1704.72,3974.42 1701.51,3976.58"/>
    </edge>
    <edge id=":1534157123_7" function="internal">
        <lane id=":1534157123_7_0" index="0" disallow="tram rail_urban rail rail_electric rail_fast ship" speed="3.65" length="2.34" shape="1709.63,3975.05 1709.28,3975.88 1709.44,3977.31"/>
    </edge>
    <edge id=":1534157123_3" function="internal">
        <lane id=":1534157123_3_0" index="0" disallow="tram rail_urban rail rail_electric rail_fast ship" speed="6.51" length="9.02" shape="1702.33,3968.71 1703.60,3970.83 1703.89,3972.85 1703.19,3974.77 1701.51,3976.58"/>
    </edge>
    <edge id=":1534157123_4" function="internal">
        <lane id=":1534157123_4_0" index="0" disallow="tram rail_urban rail rail_electric rail_fast ship" speed="13.89" length="11.16" shape="1702.33,3968.71 1709.44,3977.31"/>
    </edge>
    <edge id=":1534157123_5" function="internal">
        <lane id=":1534157123_5_0" index="0" disallow="tram rail_urban rail rail_electric rail_fast ship" speed="3.65" length="2.34" shape="1702.33,3968.71 1703.71,3969.14 1704.58,3968.95"/>
    </edge>
    <edge id=":1534157123_8" function="internal">
        <lane id=":1534157123_8_0" index="0" disallow="tram rail_urban rail rail_electric rail_fast ship" speed="3.65" length="2.34" shape="1704.58,3968.95 1704.95,3968.13 1704.82,3966.70"/>
    </edge>
    <edge id=":1534157135_0" function="internal">
        <lane id=":1534157135_0_0" index="0" disallow="tram rail_urban rail rail_electric rail_fast ship" speed="6.37" length="9.04" shape="1618.66,3977.70 1616.23,3978.31 1614.24,3977.97 1612.69,3976.68 1611.57,3974.44"/>
    </edge>
    <edge id=":1534157135_1" function="internal">
        <lane id=":1534157135_1_0" index="0" disallow="tram rail_urban rail rail_electric rail_fast ship" speed="13.89" length="11.42" shape="1618.66,3977.70 1615.71,3978.92 1613.36,3979.84 1610.97,3980.63 1607.89,3981.47"/>
    </edge>
    <edge id=":1534157135_2" function="internal">
        <lane id=":1534157135_2_0" index="0" disallow="tram rail_urban rail rail_electric rail_fast ship" speed="3.65" length="2.34" shape="1618.66,3977.70 1617.85,3978.90 1617.78,3979.79"/>
    </edge>
    <edge id=":1534157135_9" function="internal">
        <lane id=":1534157135_9_0" index="0" disallow="tram rail_urban rail rail_electric rail_fast ship" speed="3.65" length="2.34" shape="1617.78,3979.79 1618.46,3980.38 1619.87,3980.67"/>
    </edge>
    <edge id=":1534157135_3" function="internal">
        <lane id=":1534157135_3_0" index="0" disallow="tram rail_urban rail rail_electric rail_fast ship" speed="6.63" length="9.30" shape="1616.52,3988.13 1615.96,3985.69 1616.33,3983.64 1617.63,3981.96 1619.87,3980.67"/>
    </edge>
    <edge id=":1534157135_4" function="internal">
        <lane id=":1534157135_4_0" index="0" disallow="tram rail_urban rail rail_electric rail_fast ship" speed="13.89" length="14.56" shape="1616.52,3988.13 1611.57,3974.44"/>
    </edge>
    <edge id=":1534157135_5" function="internal">
        <lane id=":1534157135_5_0" index="0" disallow="tram rail_urban rail rail_electric rail_fast ship" speed="7.76" length="12.00" shape="1616.52,3988.13 1614.80,3984.70 1612.79,3982.45 1610.49,3981.37 1607.89,3981.47"/>
    </edge>
    <edge id=":1534157135_6" function="internal">
        <lane id=":1534157135_6_0" index="0" disallow="tram rail_urban rail rail_electric rail_fast ship" speed="13.89" length="11.88" shape="1608.67,3984.57 1611.82,3983.71 1614.35,3982.87 1616.85,3981.90 1619.87,3980.67"/>
    </edge>
    <edge id=":1534157135_7" function="internal">
        <lane id=":1534157135_7_0" index="0" disallow="tram rail_urban rail rail_electric rail_fast ship" speed="7.23" length="4.24" shape="1608.67,3984.57 1611.02,3983.39 1611.86,3982.02"/>
    </edge>
    <edge id=":1534157135_8" function="internal">
        <lane id=":1534157135_8_0" index="0" disallow="tram rail_urban rail rail_electric rail_fast ship" speed="3.65" length="2.34" shape="1608.67,3984.57 1609.64,3983.50 1609.83,3982.63"/>
    </edge>
    <edge id=":1534157135_10" function="internal">
        <lane id=":1534157135_10_0" index="0" disallow="tram rail_urban rail rail_electric rail_fast ship" speed="7.23" length="7.81" shape="1611.86,3982.02 1612.29,3981.31 1612.47,3978.33 1611.57,3974.44"/>
    </edge>
    <edge id=":1534157135_11" function="internal">
        <lane id=":1534157135_11_0" index="0" disallow="tram rail_urban rail rail_electric rail_fast ship" speed="3.65" length="2.34" shape="1609.83,3982.63 1609.25,3981.95 1607.89,3981.47"/>
    </edge>
    <edge id=":1534157139_0" function="internal">
        <lane id=":1534157139_0_0" index="0" disallow="tram rail_urban rail rail_electric rail_fast ship" speed="7.07" length="10.05" shape="1543.63,3986.04 1540.94,3985.63 1538.94,3984.47 1537.64,3982.57 1537.04,3979.92"/>
    </edge>
    <edge id=":1534157139_1" function="internal">
        <lane id=":1534157139_1_0" index="0" disallow="tram rail_urban rail rail_electric rail_fast ship" speed="13.89" length="15.05" shape="1543.63,3986.04 1528.58,3985.87"/>
    </edge>
    <edge id=":1534157139_2" function="internal">
        <lane id=":1534157139_2_0" index="0" disallow="tram rail_urban rail rail_electric rail_fast ship" speed="7.84" length="14.57" shape="1543.63,3986.04 1539.61,3986.57 1536.85,3988.27 1535.36,3991.14 1535.12,3995.18"/>
    </edge>
    <edge id=":1534157139_3" function="internal">
        <lane id=":1534157139_3_0" index="0" disallow="tram rail_urban rail rail_electric rail_fast ship" speed="3.65" length="4.67" shape="1543.63,3986.04 1542.42,3986.83 1542.01,3987.62 1542.39,3988.43 1543.58,3989.24"/>
    </edge>
    <edge id=":1534157139_4" function="internal">
        <lane id=":1534157139_4_0" index="0" disallow="tram rail_urban rail rail_electric rail_fast ship" speed="6.31" length="9.04" shape="1538.31,3994.91 1538.46,3992.40 1539.38,3990.62 1541.09,3989.57 1543.58,3989.24"/>
    </edge>
    <edge id=":1534157139_5" function="internal">
        <lane id=":1534157139_5_0" index="0" disallow="tram rail_urban rail rail_electric rail_fast ship" speed="13.89" length="15.04" shape="1538.31,3994.91 1537.04,3979.92"/>
    </edge>
    <edge id=":1534157139_6" function="internal">
        <lane id=":1534157139_6_0" index="0" disallow="tram rail_urban rail rail_electric rail_fast ship" speed="8.46" length="6.14" shape="1538.31,3994.91 1537.42,3990.99 1536.22,3989.24"/>
    </edge>
    <edge id=":1534157139_7" function="internal">
        <lane id=":1534157139_7_0" index="0" disallow="tram rail_urban rail rail_electric rail_fast ship" speed="3.65" length="2.34" shape="1538.31,3994.91 1537.41,3993.78 1536.58,3993.45"/>
    </edge>
    <edge id=":1534157139_16" function="internal">
        <lane id=":1534157139_16_0" index="0" disallow="tram rail_urban rail rail_electric rail_fast ship" speed="8.46" length="8.71" shape="1536.22,3989.24 1535.50,3988.18 1532.55,3986.47 1528.58,3985.87"/>
    </edge>
    <edge id=":1534157139_17" function="internal">
        <lane id=":1534157139_17_0" index="0" disallow="tram rail_urban rail rail_electric rail_fast ship" speed="3.65" length="2.34" shape="1536.58,3993.45 1535.82,3993.92 1535.12,3995.18"/>
    </edge>
    <edge id=":1534157139_8" function="internal">
        <lane id=":1534157139_8_0" index="0" disallow="tram rail_urban rail rail_electric rail_fast ship" speed="7.06" length="10.03" shape="1528.55,3989.07 1531.23,3989.48 1533.22,3990.63 1534.52,3992.53 1535.12,3995.18"/>
    </edge>
    <edge id=":1534157139_9" function="internal">
        <lane id=":1534157139_9_0" index="0" disallow="tram rail_urban rail rail_electric rail_fast ship" speed="13.89" length="15.04" shape="1528.55,3989.07 1543.58,3989.24"/>
    </edge>
    <edge id=":1534157139_10" function="internal">
        <lane id=":1534157139_10_0" index="0" disallow="tram rail_urban rail rail_electric rail_fast ship" speed="7.84" length="14.56" shape="1528.55,3989.07 1532.56,3988.53 1535.31,3986.83 1536.80,3983.96 1537.04,3979.92"/>
    </edge>
    <edge id=":1534157139_11" function="internal">
        <lane id=":1534157139_11_0" index="0" disallow="tram rail_urban rail rail_electric rail_fast ship" speed="3.65" length="4.67" shape="1528.55,3989.07 1529.75,3988.28 1530.16,3987.49 1529.77,3986.68 1528.58,3985.87"/>
    </edge>
    <edge id=":1534157139_12" function="internal">
        <lane id=":1534157139_12_0" index="0" disallow="tram rail_urban rail rail_electric rail_fast ship" speed="6.31" length="9.04" shape="1533.85,3980.19 1533.70,3982.70 1532.78,3984.48 1531.07,3985.54 1528.58,3985.87"/>
    </edge>
    <edge id=":1534157139_13" function="internal">
        <lane id=":1534157139_13_0" index="0" disallow="tram rail_urban rail rail_electric rail_fast ship" speed="13.89" length="15.04" shape="1533.85,3980.19 1535.12,3995.18"/>
    </edge>
    <edge id=":1534157139_14" function="internal">
        <lane id=":1534157139_14_0" index="0" disallow="tram rail_urban rail rail_electric rail_fast ship" speed="8.47" length="6.13" shape="1533.85,3980.19 1534.74,3984.11 1535.94,3985.86"/>
    </edge>
    <edge id=":1534157139_15" function="internal">
        <lane id=":1534157139_15_0" index="0" disallow="tram rail_urban rail rail_electric rail_fast ship" speed="3.65" length="2.34" shape="1533.85,3980.19 1534.75,3981.32 1535.58,3981.65"/>
    </edge>
    <edge id=":1534157139_18" function="internal">
        <lane id=":1534157139_18_0" index="0" disallow="tram rail_urban rail rail_electric rail_fast ship" speed="8.47" length="8.72" shape="1535.94,3985.86 1536.66,3986.92 1539.61,3988.63 1543.58,3989.24"/>
    </edge>
    <edge id=":1534157139_19" function="internal">
        <lane id=":1534157139_19_0" index="0" disallow="tram rail_urban rail rail_electric rail_fast ship" speed="3.65" length="2.34" shape="1535.58,3981.65 1536.34,3981.18 1537.04,3979.92"/>
    </edge>
    <edge id=":1534157142_0" function="internal">
        <lane id=":1534157142_0_0" index="0" disallow="tram rail_urban rail rail_electric rail_fast ship" speed="6.56" length="9.17" shape="1742.45,4002.70 1740.33,4004.01 1738.29,4004.31 1736.32,4003.61 1734.43,4001.92"/>
    </edge>
    <edge id=":1534157142_1" function="internal">
        <lane id=":1534157142_1_0" index="0" disallow="tram rail_urban rail rail_electric rail_fast ship" speed="13.89" length="14.48" shape="1742.45,4002.70 1731.17,4011.79"/>
    </edge>
    <edge id=":1534157142_2" function="internal">
        <lane id=":1534157142_2_0" index="0" disallow="tram rail_urban rail rail_electric rail_fast ship" speed="8.00" length="14.20" shape="1742.45,4002.70 1739.84,4005.60 1738.79,4008.63 1739.30,4011.80 1741.36,4015.10"/>
    </edge>
    <edge id=":1534157142_3" function="internal">
        <lane id=":1534157142_3_0" index="0" disallow="tram rail_urban rail rail_electric rail_fast ship" speed="3.65" length="4.67" shape="1742.45,4002.70 1742.04,4004.09 1742.25,4004.96 1743.07,4005.32 1744.50,4005.16"/>
    </edge>
    <edge id=":1534157142_4" function="internal">
        <lane id=":1534157142_4_0" index="0" disallow="tram rail_urban rail rail_electric rail_fast ship" speed="6.50" length="9.03" shape="1743.81,4013.04 1742.50,4010.94 1742.18,4008.93 1742.84,4007.00 1744.50,4005.16"/>
    </edge>
    <edge id=":1534157142_5" function="internal">
        <lane id=":1534157142_5_0" index="0" disallow="tram rail_urban rail rail_electric rail_fast ship" speed="13.89" length="14.55" shape="1743.81,4013.04 1734.43,4001.92"/>
    </edge>
    <edge id=":1534157142_6" function="internal">
        <lane id=":1534157142_6_0" index="0" disallow="tram rail_urban rail rail_electric rail_fast ship" speed="8.16" length="5.95" shape="1743.81,4013.04 1740.91,4010.46 1738.96,4009.78"/>
    </edge>
    <edge id=":1534157142_7" function="internal">