<?xml version="1.0" encoding="UTF-8"?>

<!-- generated on Sat Jul 18 00:28:41 2020 by Eclipse SUMO duarouter Version 1.6.0
<configuration xmlns:xsi="http://www.w3.org/2001/XMLSchema-instance" xsi:noNamespaceSchemaLocation="http://sumo.dlr.de/xsd/duarouterConfiguration.xsd">

    <input>
        <net-file value="/home/shuto/sumo/tools/2020-07-18-00-27-53/osm.net.xml"/>
        <route-files value="/home/shuto/sumo/tools/2020-07-18-00-27-53/osm.passenger.trips.xml"/>
    </input>

    <output>
        <output-file value="/home/shuto/sumo/tools/2020-07-18-00-27-53/osm.passenger.trips.xml.tmp"/>
        <write-trips value="true"/>
    </output>

    <time>
        <begin value="0"/>
        <end value="3600.0"/>
    </time>

    <report>
        <no-warnings value="true"/>
        <ignore-errors value="true"/>
        <no-step-log value="true"/>
    </report>

</configuration>
-->

<routes xmlns:xsi="http://www.w3.org/2001/XMLSchema-instance" xsi:noNamespaceSchemaLocation="http://sumo.dlr.de/xsd/routes_file.xsd">
    <vType id="veh_passenger" vClass="passenger"/>
    <trip id="veh0" type="veh_passenger" depart="0.00" departLane="best" departSpeed="max" from="34769004" to="226041004"/>
    <trip id="veh1" type="veh_passenger" depart="0.34" departLane="best" departSpeed="max" from="528748997#0" to="464516471#2"/>
    <trip id="veh2" type="veh_passenger" depart="0.69" departLane="best" departSpeed="max" from="569345540#0" to="167922076"/>
    <trip id="veh3" type="veh_passenger" depart="1.03" departLane="best" from="438385431#2" to="-496990648"/>
    <trip id="veh4" type="veh_passenger" depart="1.38" departLane="best" departSpeed="max" from="23048548" to="397795464#2"/>
    <trip id="veh5" type="veh_passenger" depart="1.72" departLane="best" departSpeed="max" from="-36185649" to="198924631"/>
    <trip id="veh6" type="veh_passenger" depart="2.07" departLane="best" departSpeed="max" from="496990648" to="420802027#0"/>
    <trip id="veh7" type="veh_passenger" depart="2.41" departLane="best" from="32939224#0" to="455125048#0"/>
    <trip id="veh8" type="veh_passenger" depart="2.76" departLane="best" departSpeed="max" from="5671577" to="-438382685#1"/>
    <trip id="veh9" type="veh_passenger" depart="3.10" departLane="best" departSpeed="max" from="5671577" to="46518740"/>
    <trip id="veh11" type="veh_passenger" depart="3.79" departLane="best" departSpeed="max" from="195743182#0" to="167922076"/>
    <trip id="veh12" type="veh_passenger" depart="4.14" departLane="best" from="569345518" to="458166897#14"/>
    <trip id="veh13" type="veh_passenger" depart="4.48" departLane="best" departSpeed="max" from="5671577" to="46522008#4"/>
    <trip id="veh15" type="veh_passenger" depart="5.17" departLane="best" from="397795463#1" to="420901681#2"/>
    <trip id="veh16" type="veh_passenger" depart="5.51" departLane="best" departSpeed="max" from="5672954" to="458166897#9"/>
    <trip id="veh17" type="veh_passenger" depart="5.86" departLane="best" departSpeed="max" from="569345540#0" to="452322756#0"/>
    <trip id="veh18" type="veh_passenger" depart="6.20" departLane="best" departSpeed="max" from="505778913" to="-5670891#0"/>
    <trip id="veh19" type="veh_passenger" depart="6.55" departLane="best" from="167922072#0" to="226041012#1"/>
    <trip id="veh21" type="veh_passenger" depart="7.24" departLane="best" departSpeed="max" from="496990648" to="34769017"/>
    <trip id="veh22" type="veh_passenger" depart="7.58" departLane="best" departSpeed="max" from="384649120#0" to="198924631"/>
    <trip id="veh24" type="veh_passenger" depart="8.27" departLane="best" from="226041022#3" to="46522008#4"/>
    <trip id="veh25" type="veh_passenger" depart="8.62" departLane="best" departSpeed="max" from="226041001#0" to="34769017"/>
    <trip id="veh26" type="veh_passenger" depart="8.96" departLane="best" departSpeed="max" from="812949648#0" to="46211836#0"/>
    <trip id="veh27" type="veh_passenger" depart="9.31" departLane="best" departSpeed="max" from="458180197" to="465000799"/>
    <trip id="veh29" type="veh_passenger" depart="9.99" departLane="best" departSpeed="max" from="379843705" to="32939514#1"/>
    <trip id="veh30" type="veh_passenger" depart="10.34" departLane="best" departSpeed="max" from="23048548" to="569345538#1"/>
    <trip id="veh32" type="veh_passenger" depart="11.03" departLane="best" departSpeed="max" from="496990648" to="35027229#0"/>
    <trip id="veh34" type="veh_passenger" depart="11.72" departLane="best" departSpeed="max" from="458180197" to="226092573#1"/>
    <trip id="veh35" type="veh_passenger" depart="12.06" departLane="best" departSpeed="max" from="458180197" to="569345537#2"/>
    <trip id="veh36" type="veh_passenger" depart="12.41" departLane="best" departSpeed="max" from="420908138#0" to="226041004"/>
    <trip id="veh37" type="veh_passenger" depart="12.75" departLane="best" from="812949648#6" to="397795464#2"/>
    <trip id="veh38" type="veh_passenger" depart="13.10" departLane="best" departSpeed="max" from="195743182#0" to="-5670891#0"/>
    <trip id="veh39" type="veh_passenger" depart="13.44" departLane="best" departSpeed="max" from="195743182#0" to="458180188"/>
    <trip id="veh40" type="veh_passenger" depart="13.79" departLane="best" departSpeed="max" from="5671192#0" to="36806906#1"/>
    <trip id="veh41" type="veh_passenger" depart="14.13" departLane="best" departSpeed="max" from="812949648#0" to="420356172"/>
    <trip id="veh42" type="veh_passenger" depart="14.47" departLane="best" from="710571391" to="5673323#2"/>
    <trip id="veh43" type="veh_passenger" depart="14.82" departLane="best" departSpeed="max" from="-167922076" to="46522008#4"/>
    <trip id="veh44" type="veh_passenger" depart="15.16" departLane="best" departSpeed="max" from="497165753#0" to="420357249#1"/>
    <trip id="veh45" type="veh_passenger" depart="15.51" departLane="best" departSpeed="max" from="198595507" to="379843702#1"/>
    <trip id="veh46" type="veh_passenger" depart="15.85" departLane="best" departSpeed="max" from="458166897#0" to="575746068"/>
    <trip id="veh47" type="veh_passenger" depart="16.20" departLane="best" departSpeed="max" from="569345540#0" to="226092573#1"/>
    <trip id="veh48" type="veh_passenger" depart="16.54" departLane="best" departSpeed="max" from="458166897#0" to="198924628"/>
    <trip id="veh49" type="veh_passenger" depart="16.89" departLane="best" from="682360554#2" to="569345515#0"/>
    <trip id="veh50" type="veh_passenger" depart="17.23" departLane="best" departSpeed="max" from="34769004" to="458180196"/>
    <trip id="veh52" type="veh_passenger" depart="17.92" departLane="best" from="542257009#2" to="420357249#1"/>
    <trip id="veh53" type="veh_passenger" depart="18.27" departLane="best" from="5670867#1" to="420357249#1"/>
    <trip id="veh55" type="veh_passenger" depart="18.96" departLane="best" departSpeed="max" from="-167922076" to="569345537#2"/>
    <trip id="veh56" type="veh_passenger" depart="19.30" departLane="best" departSpeed="max" from="569345540#0" to="5671709"/>
    <trip id="veh57" type="veh_passenger" depart="19.64" departLane="best" from="169267544" to="397795464#2"/>
    <trip id="veh58" type="veh_passenger" depart="19.99" departLane="best" departSpeed="max" from="-46694751" to="497165756#1"/>
    <trip id="veh59" type="veh_passenger" depart="20.33" departLane="best" departSpeed="max" from="542258061" to="169381965#2"/>
    <trip id="veh60" type="veh_passenger" depart="20.68" departLane="best" departSpeed="max" from="458166897#0" to="420901681#1"/>
    <trip id="veh62" type="veh_passenger" depart="21.37" departLane="best" from="438385431#4" to="198924631"/>
    <trip id="veh63" type="veh_passenger" depart="21.71" departLane="best" from="458166897#9" to="46522008#4"/>
    <trip id="veh64" type="veh_passenger" depart="22.06" departLane="best" departSpeed="max" from="23048548" to="32946656"/>
    <trip id="veh65" type="veh_passenger" depart="22.40" departLane="best" departSpeed="max" from="812949648#0" to="46211841"/>
    <trip id="veh66" type="veh_passenger" depart="22.75" departLane="best" from="448686048" to="397795464#2"/>
    <trip id="veh67" type="veh_passenger" depart="23.09" departLane="best" departSpeed="max" from="198595507" to="226041004"/>
    <trip id="veh68" type="veh_passenger" depart="23.44" departLane="best" departSpeed="max" from="384649120#0" to="455125048#0"/>
    <trip id="veh70" type="veh_passenger" depart="24.12" departLane="best" departSpeed="max" from="-46694751" to="458180190#2"/>
    <trip id="veh72" type="veh_passenger" depart="24.81" departLane="best" departSpeed="max" from="569345540#0" to="127693103#0"/>
    <trip id="veh74" type="veh_passenger" depart="25.50" departLane="best" departSpeed="max" from="23048548" to="169381965#2"/>
    <trip id="veh75" type="veh_passenger" depart="25.85" departLane="best" departSpeed="max" from="691480071#0" to="440122868"/>
    <trip id="veh77" type="veh_passenger" depart="26.54" departLane="best" departSpeed="max" from="5671577" to="198924631"/>
    <trip id="veh78" type="veh_passenger" depart="26.88" departLane="best" departSpeed="max" from="195743182#0" to="375164212"/>
    <trip id="veh79" type="veh_passenger" depart="27.23" departLane="best" from="438385431#4" to="384649120#3"/>
    <trip id="veh80" type="veh_passenger" depart="27.57" departLane="best" departSpeed="max" from="528748997#0" to="464515891"/>
    <trip id="veh81" type="veh_passenger" depart="27.92" departLane="best" departSpeed="max" from="717625447#0" to="167922076"/>
    <trip id="veh83" type="veh_passenger" depart="28.61" departLane="best" departSpeed="max" from="569345540#0" to="226041025#3"/>
    <trip id="veh84" type="veh_passenger" depart="28.95" departLane="best" departSpeed="max" from="226041028#0" to="381565180"/>
    <trip id="veh87" type="veh_passenger" depart="29.98" departLane="best" from="456409017#0" to="5673323#2"/>
    <trip id="veh88" type="veh_passenger" depart="30.33" departLane="best" from="458180191#2" to="-5670891#0"/>
    <trip id="veh89" type="veh_passenger" depart="30.67" departLane="best" from="819074877" to="5671709"/>
    <trip id="veh90" type="veh_passenger" depart="31.02" departLane="best" from="710571388#0" to="569345537#2"/>
    <trip id="veh92" type="veh_passenger" depart="31.71" departLane="best" departSpeed="max" from="458166897#0" to="226041004"/>
    <trip id="veh93" type="veh_passenger" depart="32.05" departLane="best" departSpeed="max" from="420908138#0" to="-5671577"/>
    <trip id="veh94" type="veh_passenger" depart="32.40" departLane="best" departSpeed="max" from="458166897#0" to="36806906#1"/>
    <trip id="veh95" type="veh_passenger" depart="32.74" departLane="best" departSpeed="max" from="691480071#0" to="743358443#0"/>
    <trip id="veh96" type="veh_passenger" depart="33.09" departLane="best" departSpeed="max" from="458180197" to="46522005"/>
    <trip id="veh98" type="veh_passenger" depart="33.77" departLane="best" from="710571388#0" to="452322756#0"/>
    <trip id="veh99" type="veh_passenger" depart="34.12" departLane="best" from="458180183" to="46694751"/>
    <trip id="veh100" type="veh_passenger" depart="34.46" departLane="best" departSpeed="max" from="-46518740" to="452322756#0"/>
    <trip id="veh101" type="veh_passenger" depart="34.81" departLane="best" departSpeed="max" from="458166897#0" to="5673323#2"/>
    <trip id="veh102" type="veh_passenger" depart="35.15" departLane="best" from="167922072#2" to="198924631"/>
    <trip id="veh104" type="veh_passenger" depart="35.84" departLane="best" departSpeed="max" from="569345540#0" to="226041025#3"/>
    <trip id="veh105" type="veh_passenger" depart="36.19" departLane="best" from="464516471#1" to="458166897#9"/>
    <trip id="veh106" type="veh_passenger" depart="36.53" departLane="best" from="438382685#0" to="452322756#0"/>
    <trip id="veh107" type="veh_passenger" depart="36.88" departLane="best" from="458166897#11" to="569345538#1"/>
    <trip id="veh108" type="veh_passenger" depart="37.22" departLane="best" departSpeed="max" from="23048548" to="46522005"/>
    <trip id="veh111" type="veh_passenger" depart="38.25" departLane="best" departSpeed="max" from="379843705" to="496990647#0"/>
    <trip id="veh112" type="veh_passenger" depart="38.60" departLane="best" from="-511699183#2" to="381565180"/>
    <trip id="veh113" type="veh_passenger" depart="38.94" departLane="best" from="818182930#0" to="743358444#1"/>
    <trip id="veh114" type="veh_passenger" depart="39.29" departLane="best" from="-511699183#3" to="198924631"/>
    <trip id="veh116" type="veh_passenger" depart="39.98" departLane="best" departSpeed="max" from="569345540#0" to="569345537#2"/>
    <trip id="veh118" type="veh_passenger" depart="40.67" departLane="best" departSpeed="max" from="5672954" to="46522001#0"/>
    <trip id="veh119" type="veh_passenger" depart="41.01" departLane="best" departSpeed="max" from="46482602#0" to="710571388#0"/>
    <trip id="veh120" type="veh_passenger" depart="41.36" departLane="best" departSpeed="max" from="496990648" to="-46520921#1"/>
    <trip id="veh122" type="veh_passenger" depart="42.05" departLane="best" departSpeed="max" from="497165753#0" to="569345538#1"/>
    <trip id="veh124" type="veh_passenger" depart="42.74" departLane="best" departSpeed="max" from="195743182#0" to="420901681#3"/>
    <trip id="veh125" type="veh_passenger" depart="43.08" departLane="best" departSpeed="max" from="34769004" to="458166897#15"/>
    <trip id="veh126" type="veh_passenger" depart="43.42" departLane="best" departSpeed="max" from="505778913" to="198924631"/>
    <trip id="veh127" type="veh_passenger" depart="43.77" departLane="best" from="496990647#2" to="226092573#1"/>
    <trip id="veh128" type="veh_passenger" depart="44.11" departLane="best" departSpeed="max" from="458166897#0" to="569345537#2"/>
    <trip id="veh129" type="veh_passenger" depart="44.46" departLane="best" from="569345515#3" to="167922076"/>
    <trip id="veh131" type="veh_passenger" depart="45.15" departLane="best" departSpeed="max" from="-167922076" to="511699183#1"/>
    <trip id="veh132" type="veh_passenger" depart="45.49" departLane="best" departSpeed="max" from="496990648" to="226092572#0"/>
    <trip id="veh133" type="veh_passenger" depart="45.84" departLane="best" departSpeed="max" from="528748997#0" to="420901681#2"/>
    <trip id="veh134" type="veh_passenger" depart="46.18" departLane="best" from="-587355676" to="569345537#2"/>
    <trip id="veh135" type="veh_passenger" depart="46.53" departLane="best" from="658583340#2" to="420802027#1"/>
    <trip id="veh136" type="veh_passenger" depart="46.87" departLane="best" departSpeed="max" from="5672954" to="452322756#0"/>
    <trip id="veh138" type="veh_passenger" depart="47.56" departLane="best" from="379843702#0" to="569345537#2"/>
    <trip id="veh139" type="veh_passenger" depart="47.90" departLane="best" departSpeed="max" from="5671192#0" to="5673323#2"/>
    <trip id="veh140" type="veh_passenger" depart="48.25" departLane="best" from="619280617#2" to="198924631"/>
    <trip id="veh142" type="veh_passenger" depart="48.94" departLane="best" departSpeed="max" from="5670891#0" to="569345537#2"/>
    <trip id="veh143" type="veh_passenger" depart="49.28" departLane="best" departSpeed="max" from="420908138#0" to="458177131#1"/>
    <trip id="veh145" type="veh_passenger" depart="49.97" departLane="best" departSpeed="max" from="569345540#0" to="669657396#4"/>
    <trip id="veh146" type="veh_passenger" depart="50.32" departLane="best" departSpeed="max" from="5671577" to="569345537#2"/>
    <trip id="veh147" type="veh_passenger" depart="50.66" departLane="best" departSpeed="max" from="-36185649" to="46694751"/>
    <trip id="veh148" type="veh_passenger" depart="51.01" departLane="best" from="384178816#1" to="569345537#2"/>
    <trip id="veh149" type="veh_passenger" depart="51.35" departLane="best" departSpeed="max" from="5671577" to="5673323#2"/>
    <trip id="veh150" type="veh_passenger" depart="51.70" departLane="best" departSpeed="max" from="5671577" to="32939224#1"/>
    <trip id="veh151" type="veh_passenger" depart="52.04" departLane="best" departSpeed="max" from="5670891#0" to="169267541#1"/>
    <trip id="veh152" type="veh_passenger" depart="52.39" departLane="best" departSpeed="max" from="569345540#0" to="5673323#2"/>
    <trip id="veh155" type="veh_passenger" depart="53.42" departLane="best" departSpeed="max" from="5671192#0" to="226041006#1"/>
    <trip id="veh156" type="veh_passenger" depart="53.76" departLane="best" from="-169381963#1" to="198924631"/>
    <trip id="veh157" type="veh_passenger" depart="54.11" departLane="best" departSpeed="max" from="379843705" to="5673323#2"/>
    <trip id="veh159" type="veh_passenger" depart="54.80" departLane="best" departSpeed="max" from="496990648" to="35027229#0"/>
    <trip id="veh160" type="veh_passenger" depart="55.14" departLane="best" departSpeed="max" from="717625447#0" to="420357249#1"/>
    <trip id="veh161" type="veh_passenger" depart="55.49" departLane="best" departSpeed="max" from="691480071#0" to="169381965#2"/>
    <trip id="veh162" type="veh_passenger" depart="55.83" departLane="best" from="710571391" to="198924628"/>
    <trip id="veh163" type="veh_passenger" depart="56.18" departLane="best" departSpeed="max" from="195743182#0" to="379843702#0"/>
    <trip id="veh165" type="veh_passenger" depart="56.87" departLane="best" departSpeed="max" from="46469727#0" to="397795464#2"/>
    <trip id="veh166" type="veh_passenger" depart="57.21" departLane="best" from="420802028#2" to="452322756#0"/>
    <trip id="veh168" type="veh_passenger" depart="57.90" departLane="best" from="-167922072#4" to="569345537#2"/>
    <trip id="veh169" type="veh_passenger" depart="58.24" departLane="best" from="458166897#8" to="46522005"/>
    <trip id="veh170" type="veh_passenger" depart="58.59" departLane="best" departSpeed="max" from="528748997#0" to="46443656#3"/>
    <trip id="veh171" type="veh_passenger" depart="58.93" departLane="best" departSpeed="max" from="384649120#0" to="127693103#0"/>
    <trip id="veh173" type="veh_passenger" depart="59.62" departLane="best" departSpeed="max" from="379843705" to="5673063#10"/>
    <trip id="veh175" type="veh_passenger" depart="60.31" departLane="best" departSpeed="max" from="379843705" to="36185649"/>
    <trip id="veh177" type="veh_passenger" depart="61.00" departLane="best" departSpeed="max" from="198595507" to="36806906#1"/>
    <trip id="veh178" type="veh_passenger" depart="61.35" departLane="best" departSpeed="max" from="691480071#0" to="464516471#3"/>
    <trip id="veh179" type="veh_passenger" depart="61.69" departLane="best" from="654756703" to="458166897#7"/>
    <trip id="veh180" type="veh_passenger" depart="62.03" departLane="best" departSpeed="max" from="34769004" to="420901681#0"/>
    <trip id="veh182" type="veh_passenger" depart="62.72" departLane="best" departSpeed="max" from="44165033#0" to="452322756#0"/>
    <trip id="veh183" type="veh_passenger" depart="63.07" departLane="best" departSpeed="max" from="496990648" to="384178816#1"/>
    <trip id="veh184" type="veh_passenger" depart="63.41" departLane="best" from="456409017#0" to="226041004"/>
    <trip id="veh185" type="veh_passenger" depart="63.76" departLane="best" departSpeed="max" from="458166897#0" to="569345537#2"/>
    <trip id="veh187" type="veh_passenger" depart="64.45" departLane="best" from="169267541#1" to="397795464#2"/>
    <trip id="veh189" type="veh_passenger" depart="65.14" departLane="best" departSpeed="max" from="5672954" to="483360105#2"/>
    <trip id="veh190" type="veh_passenger" depart="65.48" departLane="best" departSpeed="max" from="497165753#0" to="226041004"/>
    <trip id="veh191" type="veh_passenger" depart="65.83" departLane="best" departSpeed="max" from="23048548" to="-496990648"/>
    <trip id="veh193" type="veh_passenger" depart="66.52" departLane="best" from="569345537#0" to="167922071"/>
    <trip id="veh194" type="veh_passenger" depart="66.86" departLane="best" departSpeed="max" from="420908138#0" to="458180190#1"/>
    <trip id="veh195" type="veh_passenger" depart="67.20" departLane="best" from="226041029#1" to="46518740"/>
    <trip id="veh196" type="veh_passenger" depart="67.55" departLane="best" departSpeed="max" from="458166897#0" to="226041013#0"/>
    <trip id="veh197" type="veh_passenger" depart="67.89" departLane="best" from="496992867" to="-438382685#0"/>
    <trip id="veh198" type="veh_passenger" depart="68.24" departLane="best" from="539018144-AddedOffRampEdge" to="511699182#0"/>
    <trip id="veh199" type="veh_passenger" depart="68.58" departLane="best" departSpeed="max" from="195743182#0" to="36806906#1"/>
    <trip id="veh200" type="veh_passenger" depart="68.93" departLane="best" departSpeed="max" from="226041027#0" to="575746068"/>
    <trip id="veh201" type="veh_passenger" depart="69.27" departLane="best" departSpeed="max" from="458166897#0" to="-5670891#0"/>
    <trip id="veh204" type="veh_passenger" depart="70.31" departLane="best" departSpeed="max" from="497165753#0" to="710571388#0"/>
    <trip id="veh205" type="veh_passenger" depart="70.65" departLane="best" from="464516471#2" to="575746068"/>
    <trip id="veh206" type="veh_passenger" depart="71.00" departLane="best" departSpeed="max" from="569345540#0" to="458166897#6"/>
    <trip id="veh207" type="veh_passenger" depart="71.34" departLane="best" departSpeed="max" from="505778913" to="397795464#2"/>
    <trip id="veh208" type="veh_passenger" depart="71.68" departLane="best" departSpeed="max" from="5672954" to="420901681#0"/>
    <trip id="veh209" type="veh_passenger" depart="72.03" departLane="best" from="619280617#0" to="46694751"/>
    <trip id="veh210" type="veh_passenger" depart="72.37" departLane="best" departSpeed="max" from="458166897#0" to="226041025#3"/>
    <trip id="veh215" type="veh_passenger" depart="74.10" departLane="best" from="458177130" to="169381965#2"/>
    <trip id="veh217" type="veh_passenger" depart="74.79" departLane="best" departSpeed="max" from="505778913" to="-5671577"/>
    <trip id="veh218" type="veh_passenger" depart="75.13" departLane="best" departSpeed="max" from="420908138#0" to="420357249#1"/>
    <trip id="veh219" type="veh_passenger" depart="75.48" departLane="best" departSpeed="max" from="420908138#0" to="198924631"/>
    <trip id="veh220" type="veh_passenger" depart="75.82" departLane="best" from="438384692#0" to="569345537#2"/>
    <trip id="veh221" type="veh_passenger" depart="76.17" departLane="best" departSpeed="max" from="458180197" to="46518740"/>
    <trip id="veh222" type="veh_passenger" depart="76.51" departLane="best" departSpeed="max" from="569345540#0" to="497165756#7"/>
    <trip id="veh223" type="veh_passenger" depart="76.85" departLane="best" from="420281338" to="-438382685#0"/>
    <trip id="veh224" type="veh_passenger" depart="77.20" departLane="best" departSpeed="max" from="384649120#0" to="496990647#2"/>
    <trip id="veh225" type="veh_passenger" depart="77.54" departLane="best" departSpeed="max" from="569345540#0" to="575746068"/>
    <trip id="veh226" type="veh_passenger" depart="77.89" departLane="best" from="438382685#0" to="46694751"/>
    <trip id="veh227" type="veh_passenger" depart="78.23" departLane="best" from="458180188" to="458166897#14"/>
    <trip id="veh228" type="veh_passenger" depart="78.58" departLane="best" from="32939224#1" to="226041004"/>
    <trip id="veh229" type="veh_passenger" depart="78.92" departLane="best" departSpeed="max" from="384649120#0" to="464516471#4"/>
    <trip id="veh231" type="veh_passenger" depart="79.61" departLane="best" departSpeed="max" from="458166897#0" to="169381965#2"/>
    <trip id="veh232" type="veh_passenger" depart="79.96" departLane="best" from="46482602#4" to="-496990648"/>
    <trip id="veh233" type="veh_passenger" depart="80.30" departLane="best" from="420906753" to="438384693#1"/>
    <trip id="veh234" type="veh_passenger" depart="80.65" departLane="best" departSpeed="max" from="-36185649" to="46211841"/>
    <trip id="veh236" type="veh_passenger" depart="81.33" departLane="best" departSpeed="max" from="-46518740" to="34769017"/>
    <trip id="veh238" type="veh_passenger" depart="82.02" departLane="best" departSpeed="max" from="542257009#0" to="34769017"/>
    <trip id="veh239" type="veh_passenger" depart="82.37" departLane="best" departSpeed="max" from="542257009#0" to="5671709"/>
    <trip id="veh241" type="veh_passenger" depart="83.06" departLane="best" departSpeed="max" from="-167922076" to="420357249#1"/>
    <trip id="veh242" type="veh_passenger" depart="83.40" departLane="best" from="819074878" to="34769017"/>
    <trip id="veh243" type="veh_passenger" depart="83.75" departLane="best" departSpeed="max" from="496990648" to="544549058"/>
    <trip id="veh244" type="veh_passenger" depart="84.09" departLane="best" departSpeed="max" from="496990648" to="496992868"/>
    <trip id="veh245" type="veh_passenger" depart="84.44" departLane="best" departSpeed="max" from="691480071#0" to="198924631"/>
    <trip id="veh247" type="veh_passenger" depart="85.13" departLane="best" departSpeed="max" from="198595507" to="46443656#3"/>
    <trip id="veh248" type="veh_passenger" depart="85.47" departLane="best" departSpeed="max" from="458180197" to="226041004"/>
    <trip id="veh249" type="veh_passenger" depart="85.82" departLane="best" departSpeed="max" from="226041001#0" to="458166897#2"/>
    <trip id="veh250" type="veh_passenger" depart="86.16" departLane="best" departSpeed="max" from="528748997#0" to="169381965#2"/>
    <trip id="veh251" type="veh_passenger" depart="86.50" departLane="best" departSpeed="max" from="5672954" to="619280612#1"/>
    <trip id="veh252" type="veh_passenger" depart="86.85" departLane="best" departSpeed="max" from="195743182#0" to="-496990648"/>
    <trip id="veh253" type="veh_passenger" depart="87.19" departLane="best" departSpeed="max" from="379843705" to="464516471#3"/>
    <trip id="veh254" type="veh_passenger" depart="87.54" departLane="best" departSpeed="max" from="691480071#0" to="35027229#0"/>
    <trip id="veh255" type="veh_passenger" depart="87.88" departLane="best" departSpeed="max" from="505778913" to="167922072#4"/>
    <trip id="veh256" type="veh_passenger" depart="88.23" departLane="best" from="497165753#2" to="458180187#2"/>
    <trip id="veh257" type="veh_passenger" depart="88.57" departLane="best" departSpeed="max" from="195743182#0" to="511699183#3"/>
    <trip id="veh258" type="veh_passenger" depart="88.92" departLane="best" departSpeed="max" from="569345540#0" to="458166897#12"/>
    <trip id="veh259" type="veh_passenger" depart="89.26" departLane="best" departSpeed="max" from="198595507" to="682360554#1"/>
    <trip id="veh260" type="veh_passenger" depart="89.61" departLane="best" departSpeed="max" from="5670891#0" to="34769017"/>
    <trip id="veh261" type="veh_passenger" depart="89.95" departLane="best" departSpeed="max" from="44165033#0" to="34769017"/>
    <trip id="veh263" type="veh_passenger" depart="90.64" departLane="best" departSpeed="max" from="195743182#0" to="575746068"/>
    <trip id="veh264" type="veh_passenger" depart="90.98" departLane="best" departSpeed="max" from="496990648" to="5671709"/>
    <trip id="veh265" type="veh_passenger" depart="91.33" departLane="best" departSpeed="max" from="505778913" to="380145816#1"/>
    <trip id="veh266" type="veh_passenger" depart="91.67" departLane="best" departSpeed="max" from="528748997#0" to="619280617#0"/>
    <trip id="veh268" type="veh_passenger" depart="92.36" departLane="best" from="458166897#8" to="397795464#2"/>
    <trip id="veh269" type="veh_passenger" depart="92.71" departLane="best" departSpeed="max" from="44165033#0" to="46522008#4"/>
    <trip id="veh271" type="veh_passenger" depart="93.40" departLane="best" departSpeed="max" from="5672954" to="167922076"/>
    <trip id="veh272" type="veh_passenger" depart="93.74" departLane="best" departSpeed="max" from="569345540#0" to="226041012#1"/>
    <trip id="veh273" type="veh_passenger" depart="94.09" departLane="best" departSpeed="max" from="458166897#0" to="458166897#5"/>
    <trip id="veh274" type="veh_passenger" depart="94.43" departLane="best" from="397795463#1" to="-496990648"/>
    <trip id="veh275" type="veh_passenger" depart="94.78" departLane="best" departSpeed="max" from="569345540#0" to="198924628"/>
    <trip id="veh277" type="veh_passenger" depart="95.46" departLane="best" departSpeed="max" from="384649120#0" to="569345537#2"/>
    <trip id="veh280" type="veh_passenger" depart="96.50" departLane="best" from="169267544" to="46522008#0"/>
    <trip id="veh281" type="veh_passenger" depart="96.84" departLane="best" departSpeed="max" from="458166897#0" to="497165753#4"/>
    <trip id="veh282" type="veh_passenger" depart="97.19" departLane="best" from="497165753#2" to="46211841"/>
    <trip id="veh285" type="veh_passenger" depart="98.22" departLane="best" departSpeed="max" from="458180197" to="397795464#2"/>
    <trip id="veh286" type="veh_passenger" depart="98.57" departLane="best" from="458166897#2" to="36806906#1"/>
    <trip id="veh290" type="veh_passenger" depart="99.95" departLane="best" departSpeed="max" from="226041028#0" to="169381965#2"/>
    <trip id="veh291" type="veh_passenger" depart="100.29" departLane="best" from="458166897#7" to="497165756#3"/>
    <trip id="veh292" type="veh_passenger" depart="100.63" departLane="best" departSpeed="max" from="226041028#0" to="226041004"/>
    <trip id="veh293" type="veh_passenger" depart="100.98" departLane="best" departSpeed="max" from="458166897#0" to="46522008#4"/>
    <trip id="veh294" type="veh_passenger" depart="101.32" departLane="best" departSpeed="max" from="717625447#0" to="397795464#2"/>
    <trip id="veh295" type="veh_passenger" depart="101.67" departLane="best" departSpeed="max" from="34769004" to="167922076"/>
    <trip id="veh296" type="veh_passenger" depart="102.01" departLane="best" from="226041029#0" to="226041006#0"/>