<?xml version="1.0" encoding="UTF-8"?>

<!-- generated on Sat Jul 18 00:28:40 2020 by Eclipse SUMO polyconvert Version 1.6.0
<configuration xmlns:xsi="http://www.w3.org/2001/XMLSchema-instance" xsi:noNamespaceSchemaLocation="http://sumo.dlr.de/xsd/polyconvertConfiguration.xsd">

    <input>
        <net-file value="osm.net.xml"/>
        <osm-files value="osm_bbox.osm.xml"/>
        <osm.keep-full-type value="true"/>
        <type-file value="/usr/share/sumo/data/typemap/osmPolyconvert.typ.xml"/>
    </input>

    <output>
        <output-file value="osm.poly.xml"/>
    </output>

    <processing>
        <poi-layer-offset value="5"/>
    </processing>

    <report>
        <verbose value="true"/>
    </report>

</configuration>
-->

<additional xmlns:xsi="http://www.w3.org/2001/XMLSchema-instance" xsi:noNamespaceSchemaLocation="http://sumo.dlr.de/xsd/additional_file.xsd">
    <location netOffset="-584641.24,-4510300.18" convBoundary="-0.00,-657.62,286708.81,88942.38" origBoundary="-73.997127,40.733280,-70.553657,41.490781" projParameter="+proj=utm +zone=18 +ellps=WGS84 +datum=WGS84 +units=m +no_defs"/>

    <poly id="104071486" type="building.apartments" color="255,230,230" fill="1" layer="-1.00" shape="2520.019273,1504.615277 2522.993208,1503.007130 2517.100934,1492.168597 2510.878023,1480.726657 2507.912655,1482.323808 2506.646607,1483.008358 2505.312633,1483.725416 2500.651634,1475.155144 2479.018838,1486.813461 2500.563331,1526.446624 2522.187607,1514.788270 2517.419256,1506.016882 2518.761800,1505.288824 2520.019273,1504.615277"/>
    <poly id="104910990" type="landuse.forest" color="140,196,107" fill="1" layer="-3.00" shape="2553.312152,1441.990518 2573.112584,1476.274274 2577.559719,1477.903152 2638.692933,1444.394784 2681.994570,1420.957423 2667.803816,1389.270795 2621.406029,1405.322064 2574.052928,1430.821512 2553.312152,1441.990518"/>
    <poly id="104911008" type="landuse.forest" color="140,196,107" fill="1" layer="-3.00" shape="2565.093232,1380.755792 2555.671359,1385.729738 2532.146541,1398.142800 2505.004786,1344.810126 2515.672729,1339.417786 2509.722387,1328.478662 2531.087537,1318.082933 2565.093232,1380.755792"/>
    <poly id="109284794" type="building.commercial" color="255,230,230" fill="1" layer="-1.00" shape="1327.964217,2431.134698 1298.945315,2377.684777 1303.891173,2374.866688 1307.887911,2381.818664 1309.051630,2381.199341 1315.065915,2377.971773 1316.229636,2377.352451 1322.838900,2373.776522 1324.002623,2373.157202 1330.619949,2369.614680 1331.792242,2368.984358 1338.392694,2365.441647 1339.556419,2364.822329 1346.148567,2361.268427 1347.312294,2360.649110 1353.929642,2357.106609 1355.093499,2356.476192 1361.694103,2352.922401 1362.857832,2352.303087 1369.458443,2348.749303 1370.622173,2348.129989 1377.231233,2344.576310 1378.394964,2343.956998 1385.003902,2340.414426 1386.176076,2339.795213 1392.190558,2336.556606 1393.354421,2335.926195 1393.982637,2337.077024 1397.032027,2342.730184 1397.660113,2343.892114 1401.015485,2350.092841 1401.643698,2351.243670 1405.007375,2357.455598 1405.627018,2358.617430 1408.676647,2364.248394 1409.313299,2365.399323 1411.246899,2368.996712 1429.493806,2359.205615 1436.815931,2372.746636 1382.975938,2401.630863 1327.964217,2431.134698"/>
    <poly id="109284795" type="building.commercial" color="255,230,230" fill="1" layer="-1.00" shape="1592.812632,2310.434686 1595.929281,2316.099816 1599.532815,2322.725412 1604.210892,2331.317519 1607.781423,2337.876121 1614.641298,2350.490455 1618.616873,2357.786529 1621.378287,2362.781399 1560.083981,2396.684579 1530.605684,2412.595240 1503.064380,2427.462728 1496.022444,2414.524417 1501.646192,2411.492297 1486.545995,2383.716484 1480.786277,2386.824750 1474.116220,2374.568023 1531.229588,2343.735226 1592.812632,2310.434686"/>
    <poly id="109284804" type="building.commercial" color="255,230,230" fill="1" layer="-1.00" shape="1243.682648,2112.155427 1243.219090,2111.361793 1243.610080,2111.133180 1239.748440,2104.160609 1239.366020,2104.378220 1238.902461,2103.584586 1239.293451,2103.355973 1235.423363,2096.383307 1235.040942,2096.600918 1234.577382,2095.807284 1234.976813,2095.578768 1231.115029,2088.617303 1230.732479,2088.846015 1230.268918,2088.052382 1230.668478,2087.812765 1226.798373,2080.840104 1226.424393,2081.057814 1225.952390,2080.264083 1226.351822,2080.035567 1222.481708,2073.062908 1222.090846,2073.280422 1221.627283,2072.486789 1222.026715,2072.258273 1218.164905,2065.296815 1217.791054,2065.503424 1217.327490,2064.709792 1218.083892,2064.274471 1218.324050,2064.676935 1225.316603,2060.827802 1225.084757,2060.436536 1225.849730,2059.990212 1226.089760,2060.403778 1233.073880,2056.554554 1232.850475,2056.163386 1233.615320,2055.728164 1233.847037,2056.130531 1240.839606,2052.281412 1240.607889,2051.879045 1241.372735,2051.443824 1241.612764,2051.857390 1248.605471,2047.997178 1248.373625,2047.605911 1249.138601,2047.159590 1249.378630,2047.573156 1256.371215,2043.724052 1256.139370,2043.332785 1256.895906,2042.886366 1257.367908,2043.680099 1256.985355,2043.908809 1260.855453,2050.881486 1261.220995,2050.663681 1261.692996,2051.457413 1261.302003,2051.686026 1265.163780,2058.647506 1265.537762,2058.429799 1266.001193,2059.234535 1265.618769,2059.452144 1269.472226,2066.402428 1269.829197,2066.195626 1270.292756,2066.989262 1269.918774,2067.206969 1273.797288,2074.179751 1274.154259,2073.972949 1274.617816,2074.766584 1274.243705,2074.995392 1278.113770,2081.968078 1278.479311,2081.750274 1278.951308,2082.544008 1278.560316,2082.772619 1282.430501,2089.734208 1282.795912,2089.527504 1283.259467,2090.321140 1282.494494,2090.767458 1282.262781,2090.365089 1275.278665,2094.214267 1275.502195,2094.594336 1274.745664,2095.040752 1274.505509,2094.638286 1267.504391,2098.498375 1267.727793,2098.889545 1266.962950,2099.324763 1266.731236,2098.922395 1259.747137,2102.771587 1259.970667,2103.151655 1259.205697,2103.597975 1258.973983,2103.195608 1251.981451,2107.044709 1252.204853,2107.435878 1251.448324,2107.882296 1251.208297,2107.468730 1244.215773,2111.317839 1244.447617,2111.709105 1243.682648,2112.155427"/>
    <poly id="109284807" type="building.commercial" color="255,230,230" fill="1" layer="-1.00" shape="1622.270981,2262.216467 1620.220185,2258.539940 1617.468463,2253.434163 1606.328806,2232.809677 1603.627967,2227.682293 1601.603380,2223.928362 1623.766981,2212.051703 1621.618371,2208.074277 1630.138005,2203.588276 1628.882009,2201.253275 1682.333951,2172.554994 1683.589807,2174.901104 1690.489981,2187.682508 1691.985701,2190.453302 1681.197019,2196.222854 1689.402633,2211.439764 1700.055339,2205.746355 1701.550923,2208.528251 1708.426227,2221.264975 1709.690507,2223.611188 1655.296963,2252.720182 1629.393854,2266.751434 1623.864898,2265.254845 1622.270981,2262.216467"/>
    <poly id="113690621" type="leisure.park" color="207,245,201" fill="1" layer="-2.00" shape="1297.602247,1926.640730 1317.156068,1916.342696 1324.282841,1912.584027 1338.571473,1939.139882 1345.141263,1951.361991 1341.165269,1953.514080 1349.346664,1968.719198 1345.363397,1970.771281 1326.432064,1980.543556 1325.125930,1978.152518 1299.486149,1930.170893 1297.602247,1926.640730"/>
    <poly id="113690622" type="natural.water" color="181,209,209" fill="1" layer="-4.00" shape="1368.747472,2304.565213 1390.698135,2292.796422 1374.326386,2262.508086 1352.375533,2274.288027 1368.747472,2304.565213"/>
    <poly id="113722987" type="landuse.recreation_ground" color="194,194,130" fill="1" layer="-3.00" shape="1208.197309,1625.077784 1207.925169,1624.519519 1207.494489,1623.071238 1207.501485,1621.739052 1208.032115,1620.390730 1209.075366,1619.248188 1210.198401,1618.506252 1199.849118,1599.434824 1188.892334,1578.868676 1187.823031,1579.344785 1187.060585,1579.569098 1186.020980,1579.668076 1184.656910,1579.352513 1183.609809,1578.640942 1182.926341,1577.878073 1182.312850,1576.905072 1109.402474,1616.184197 1114.250420,1624.777924 1117.792062,1624.419242 1120.062073,1624.512134 1122.951362,1625.078490 1125.330172,1625.983106 1127.879572,1627.467013 1130.379308,1629.594275 1132.012004,1631.500557 1133.702592,1634.240176 1134.607385,1636.304563 1135.306495,1638.633023 1135.756173,1641.358274 1135.821009,1643.779310 1135.609203,1646.030608 1135.127267,1648.278780 1134.462703,1650.258383 1133.466991,1652.400685 1132.373708,1654.219893 1131.240532,1655.838800 1135.409676,1663.991696 1208.197309,1625.077784"/>
    <poly id="114071252" type="building.yes" color="255,230,230" fill="1" layer="-1.00" shape="1608.697938,1386.890556 1607.635987,1387.455509 1581.095712,1401.579493 1581.285869,1401.925875 1584.046010,1407.065028 1584.343456,1407.623601 1586.987861,1412.550466 1588.624069,1415.600420 1589.929708,1418.035905 1592.871551,1423.521346 1601.705493,1439.977774 1602.845777,1442.111575 1604.647318,1445.463219 1607.382617,1450.557684 1607.589138,1450.948666 1610.522770,1456.411815 1637.054470,1442.287840 1638.116415,1441.722891 1637.174219,1439.979968 1634.976277,1435.868748 1634.348274,1434.695699 1632.629611,1431.478240 1632.241249,1430.752071 1630.505701,1427.534416 1629.877697,1426.361368 1628.142534,1423.110411 1627.754042,1422.395343 1626.010306,1419.155389 1625.382301,1417.982342 1623.647134,1414.731386 1623.258641,1414.016319 1621.531655,1410.787663 1620.895207,1409.614517 1619.160036,1406.363563 1618.779984,1405.648594 1617.036110,1402.419743 1616.408102,1401.246696 1614.680981,1398.029143 1614.292616,1397.302976 1612.573676,1394.107723 1611.945667,1392.934677 1609.631706,1388.633376 1608.697938,1386.890556"/>
    <poly id="118116797" type="building.yes" color="255,230,230" fill="1" layer="-1.00" shape="1698.820438,2138.596618 1672.230476,2088.370982 1673.114423,2084.961788 1725.782114,2056.998511 1727.072260,2059.300619 1727.823830,2060.730471 1730.165150,2064.832299 1735.370536,2074.540860 1737.626402,2078.730512 1743.546175,2089.435511 1745.836184,2093.592258 1751.395274,2103.371570 1753.865409,2108.007818 1754.516324,2109.380988 1755.474895,2111.157428 1702.219340,2139.602135 1698.820438,2138.596618"/>
    <poly id="118116797#1" type="shop.department_store" color="237,199,255" fill="1" layer="-1.00" shape="1698.820438,2138.596618 1672.230476,2088.370982 1673.114423,2084.961788 1725.782114,2056.998511 1727.072260,2059.300619 1727.823830,2060.730471 1730.165150,2064.832299 1735.370536,2074.540860 1737.626402,2078.730512 1743.546175,2089.435511 1745.836184,2093.592258 1751.395274,2103.371570 1753.865409,2108.007818 1754.516324,2109.380988 1755.474895,2111.157428 1702.219340,2139.602135 1698.820438,2138.596618"/>
    <poly id="118116810" type="building.commercial" color="255,230,230" fill="1" layer="-1.00" shape="2240.650741,2210.891044 2211.521569,2157.236277 2109.810622,2212.021972 2120.528849,2231.754133 2114.802760,2234.840105 2129.330508,2261.589132 2135.064894,2258.514371 2138.940288,2265.676335 2240.650741,2210.891044"/>
    <poly id="118476490" type="building.commercial" color="255,230,230" fill="1" layer="-1.00" shape="1939.845325,2101.619586 1938.233707,2098.658647 1936.324699,2095.139120 1933.952851,2090.770412 1930.084956,2083.664164 1929.332907,2082.278693 1928.564236,2080.870824 1927.803876,2079.474155 1927.043515,2078.077485 1926.291595,2076.680914 1925.548765,2075.228938 1923.977178,2076.065446 1923.398887,2074.981768 1923.225257,2074.668875 1922.489959,2073.294704 1921.721026,2071.909037 1920.960664,2070.512368 1920.200301,2069.115699 1919.431367,2067.730032 1918.670874,2066.344465 1914.769316,2059.226730 1912.396924,2054.902432 1910.553734,2051.528011 1909.264162,2049.181467 1909.007806,2048.723279 1925.566796,2039.735214 1949.805391,2026.662507 1979.053727,2080.439685 1973.149155,2083.623601 1954.781096,2093.545204 1939.845325,2101.619586"/>
    <poly id="118476491" type="building.commercial" color="255,230,230" fill="1" layer="-1.00" shape="1834.336837,2059.508515 1812.623729,2018.976060 1859.764828,1993.724773 1870.622881,2013.857853 1881.460880,2034.257170 1834.336837,2059.508515"/>
    <poly id="118476493" type="building.commercial" color="255,230,230" fill="1" layer="-1.00" shape="2092.595278,2290.046976 2063.758087,2236.629371 2022.689870,2258.797357 2036.158384,2283.746335 2025.572783,2289.462256 2040.950128,2317.930798 2092.595278,2290.046976"/>
    <poly id="118476502" type="building.commercial" color="255,230,230" fill="1" layer="-1.00" shape="1672.090162,2356.133547 1684.514591,2378.760425 1688.779521,2376.434253 1691.308940,2381.048970 1700.526091,2397.820909 1706.270590,2408.335107 1745.453322,2386.987189 1748.851100,2385.183846 1786.734747,2364.498226 1756.802640,2309.981064 1715.521014,2332.470195 1672.090162,2356.133547"/>
    <poly id="121257608" type="leisure.park" color="207,245,201" fill="1" layer="-2.00" shape="2591.098039,1287.514146 2531.087537,1318.082933 2565.093232,1380.755792 2555.671359,1385.729738 2568.161862,1410.557120 2564.280502,1413.220388 2574.052928,1430.821512 2621.406029,1405.322064 2667.803816,1389.270795 2681.994570,1420.957423 2696.533282,1413.090749 2736.890787,1388.042469 2712.152205,1349.414558 2656.463227,1263.292814 2617.143335,1200.923328 2602.862201,1178.284145 2597.910916,1180.734958 2594.828005,1182.264080 2583.139672,1188.243822 2582.594778,1187.193794 2581.653550,1185.384145 2547.904967,1203.394491 2544.217464,1205.360609 2566.752037,1244.850152 2587.259639,1280.785384 2588.856137,1283.590852 2591.098039,1287.514146"/>
    <poly id="137564642" type="building.commercial" color="255,230,230" fill="1" layer="-1.00" shape="1731.072318,1668.448084 1731.402990,1669.051461 1810.096231,1626.448570 1809.715950,1625.755793 1810.336202,1625.418862 1785.404631,1579.120235 1771.462836,1553.300303 1764.756351,1541.242754 1759.488465,1544.101205 1751.562486,1529.464828 1739.072699,1536.224785 1693.193456,1560.936482 1682.172072,1567.036408 1690.015278,1581.538518 1685.784054,1583.831784 1685.974072,1584.189270 1685.116036,1584.645566 1691.775223,1597.146579 1704.974281,1621.514408 1730.621941,1668.698185 1731.072318,1668.448084"/>
    <poly id="137716320" type="building.yes" color="255,230,230" fill="1" layer="-1.00" shape="1031.025895,2132.518865 1005.709805,2084.175652 1055.880043,2058.043978 1059.534669,2065.413732 1060.022032,2066.340856 1062.360246,2070.742188 1069.630893,2084.437649 1079.364450,2079.354445 1090.466125,2100.488350 1093.578236,2106.586189 1061.795689,2123.182583 1059.028706,2117.899214 1031.025895,2132.518865"/>
    <poly id="137860913" type="building.commercial" color="255,230,230" fill="1" layer="-1.00" shape="1917.322269,1841.474616 1912.928111,1833.152088 1907.219731,1836.149614 1889.245962,1802.155466 1895.124225,1799.071093 1890.548195,1790.413388 1985.169969,1740.793072 2012.104889,1791.778817 1917.322269,1841.474616"/>
    <poly id="137880206" type="building.yes" color="255,230,230" fill="1" layer="-1.00" shape="2246.335194,2112.047530 2269.380448,2099.261620 2279.711458,2093.698481 2268.299493,2072.670084 2265.250118,2067.060962 2261.415896,2059.988235 2255.817143,2062.997881 2251.263641,2054.628858 2256.930448,2051.575597 2255.410103,2048.759988 2245.011002,2054.366772 2221.772572,2066.340028 2203.581905,2076.218695 2198.526671,2078.957199 2211.075979,2101.641956 2246.335194,2112.047530"/>
    <poly id="137885993" type="building.commercial" color="255,230,230" fill="1" layer="-1.00" shape="2078.464884,2026.735486 2077.588839,2025.126503 2063.531551,1999.237987 2083.727320,1988.272226 2082.586872,1986.171647 2087.710303,1983.378351 2100.251113,1976.552973 2103.335413,1974.868240 2105.077166,1973.922740 2107.430715,1972.640235 2109.529339,1971.499074 2123.715863,1997.877693 2123.904808,1998.323997 2124.112966,1999.292333 2124.096593,1999.969380 2123.943731,2000.766953 2123.527763,2001.683569 2123.235953,2002.090935 2122.894016,2002.453304 2122.084954,2003.054452 2078.464884,2026.735486"/>
    <poly id="137891657" type="building.commercial" color="255,230,230" fill="1" layer="-1.00" shape="2132.233956,2018.794233 2105.141491,2033.309532 2111.743710,2045.532739 2055.885487,2075.465481 2067.519972,2097.006843 2052.661347,2104.970881 2063.494296,2125.026256 2161.303108,2072.625578 2132.233956,2018.794233"/>
    <poly id="138022483" type="building.commercial" color="255,230,230" fill="1" layer="-1.00" shape="1559.333687,1481.784168 1563.921289,1479.339544 1564.731270,1480.836669 1579.972257,1472.720660 1595.264315,1464.571969 1610.522770,1456.411815 1607.589138,1450.948666 1607.382617,1450.557684 1604.647318,1445.463219 1602.845777,1442.111575 1601.705493,1439.977774 1592.871551,1423.521346 1589.929708,1418.035905 1588.624069,1415.600420 1586.987861,1412.550466 1584.343456,1407.623601 1584.046010,1407.065028 1581.285869,1401.925875 1581.095712,1401.579493 1565.821072,1409.672907 1550.571534,1417.788848 1535.186056,1425.980954 1530.284149,1428.588473 1530.647325,1429.303241 1537.987136,1442.844527 1532.184213,1445.974471 1519.754495,1452.657778 1513.603280,1455.972423 1507.086881,1459.471565 1515.321887,1474.444325 1521.752956,1471.021914 1527.946242,1467.718867 1546.491979,1457.842665 1559.333687,1481.784168"/>
    <poly id="143858914" type="building.yes" color="255,230,230" fill="1" layer="-1.00" shape="875.759701,2245.021978 890.076731,2271.388547 890.349509,2271.891297 894.358442,2279.287266 904.699170,2298.347092 945.322682,2276.345501 962.534380,2266.974291 948.226036,2240.607677 944.428728,2242.662118 931.064173,2250.046110 917.379790,2257.348716 897.152789,2268.317233 882.521818,2241.358608 875.759701,2245.021978"/>
    <poly id="143858914#1" type="tourism.hotel" color="207,245,201" fill="1" layer="-2.00" shape="875.759701,2245.021978 890.076731,2271.388547 890.349509,2271.891297 894.358442,2279.287266 904.699170,2298.347092 945.322682,2276.345501 962.534380,2266.974291 948.226036,2240.607677 944.428728,2242.662118 931.064173,2250.046110 917.379790,2257.348716 897.152789,2268.317233 882.521818,2241.358608 875.759701,2245.021978"/>
    <poly id="144919873" type="building.yes" color="255,230,230" fill="1" layer="-1.00" shape="2049.340115,1862.169843 2020.614203,1808.442937 2003.496288,1817.524186 1980.958434,1829.484192 1963.730231,1838.619752 1992.456423,1892.346436 2009.684671,1883.199843 2032.213843,1871.250927 2049.340115,1862.169843"/>
    <poly id="144919873#1" type="tourism.hotel" color="207,245,201" fill="1" layer="-2.00" shape="2049.340115,1862.169843 2020.614203,1808.442937 2003.496288,1817.524186 1980.958434,1829.484192 1963.730231,1838.619752 1992.456423,1892.346436 2009.684671,1883.199843 2032.213843,1871.250927 2049.340115,1862.169843"/>
    <poly id="144919878" type="building.commercial" color="255,230,230" fill="1" layer="-1.00" shape="1981.663920,1891.165506 1958.225123,1847.337280 1917.541860,1868.921966 1940.972380,1912.749964 1981.663920,1891.165506"/>
    <poly id="144932295" type="building.commercial" color="255,230,230" fill="1" layer="-1.00" shape="1848.883641,1726.832695 1874.162186,1772.258546 1971.381159,1718.582754 1946.111446,1673.156668 1848.883641,1726.832695"/>
    <poly id="145038500" type="building.yes" color="255,230,230" fill="1" layer="-1.00" shape="2323.710571,1916.234314 2321.093853,1917.635788 2296.830199,1930.595989 2294.689327,1931.736602 2323.259944,1984.818894 2349.664341,1970.718182 2348.400215,1968.371858 2346.483052,1964.841024 2345.665363,1963.299307 2345.087123,1962.215595 2341.816362,1956.048729 2338.562347,1949.893163 2335.255073,1943.959019 2337.880226,1942.557650 2334.756960,1936.769996 2334.030425,1935.373681 2324.561514,1917.820828 2323.710571,1916.234314"/>
    <poly id="145038506" type="building.office" color="255,230,230" fill="1" layer="-1.00" shape="2386.882863,2040.744467 2398.241943,2034.638453 2408.852221,2029.034362 2403.269814,2018.432693 2398.865648,2010.298478 2390.452540,2007.812632 2383.200057,1994.204844 2380.747021,1989.579681 2375.831848,1980.384761 2365.679828,1985.783340 2336.973297,2001.100416 2335.286118,2006.742767 2346.958083,2028.629196 2347.726421,2030.059312 2349.758743,2033.846852 2351.666923,2037.421992 2357.707437,2039.213791 2372.252705,2043.592408 2378.040889,2045.303543 2385.455887,2041.482656 2386.882863,2040.744467"/>
    <poly id="145043141" type="building.yes" color="255,230,230" fill="1" layer="-1.00" shape="2410.963328,2119.498372 2412.752383,2118.120511 2414.362911,2116.129926 2415.579582,2113.890462 2416.440595,2111.025091 2416.566927,2106.741094 2416.273164,2102.285625 2414.859599,2095.418902 2413.226184,2090.736745 2411.371695,2086.906866 2409.174121,2082.817603 2406.241166,2078.086869 2403.273361,2074.166193 2400.035791,2070.930689 2396.614695,2068.225941 2394.517076,2067.124371 2391.882097,2065.772238 2389.822378,2065.037490 2386.763611,2064.546358 2384.382311,2064.596096 2382.476676,2065.117718 2380.912821,2066.009732 2379.148823,2067.410100 2377.571668,2069.434391 2376.388505,2071.696459 2375.569578,2074.573432 2375.283838,2078.056191 2375.676052,2082.757064 2377.247688,2089.825477 2379.006698,2094.597919 2381.019625,2098.596185 2383.293440,2102.664131 2386.352624,2107.429646 2389.537934,2111.519406 2392.810949,2114.610992 2396.266180,2117.282834 2399.892094,2119.079603 2402.927433,2120.125581 2405.995270,2120.561316 2408.395391,2120.345272 2410.963328,2119.498372"/>
    <poly id="145341258" type="building.commercial" color="255,230,230" fill="1" layer="-1.00" shape="2120.092202,2134.259956 2116.316058,2127.265703 2093.505702,2139.488614 2114.014574,2177.443222 2137.020294,2165.111641 2132.748388,2157.201183 2140.164964,2153.224643 2148.328666,2168.341673 2171.767825,2155.771026 2163.504945,2140.475171 2157.696066,2129.726709 2157.211807,2129.987489 2154.237043,2124.490311 2150.568317,2117.697139 2149.618021,2115.942947 2148.097650,2113.127359 2145.015610,2107.417985 2142.908408,2103.529705 2119.987421,2115.817855 2127.738131,2130.163965 2120.092202,2134.259956"/>
    <poly id="146028965" type="building.commercial" color="255,230,230" fill="1" layer="-1.00" shape="1366.590728,2497.552720 1362.508096,2490.011291 1344.407990,2455.928169 1340.440903,2448.610141 1393.197204,2420.678923 1397.162708,2428.130189 1401.562437,2425.816523 1399.959640,2422.811398 1446.030950,2398.466630 1467.427969,2438.661268 1421.331379,2463.016709 1419.662364,2459.899786 1415.245638,2462.224346 1419.235902,2469.720322 1400.011127,2480.144008 1366.590728,2497.552720"/>
    <poly id="146031971" type="building.commercial" color="255,230,230" fill="1" layer="-1.00" shape="1298.243393,2355.239000 1294.395525,2357.281574 1279.054973,2365.430276 1265.344089,2340.069142 1249.518295,2348.567548 1235.848580,2323.284666 1275.944382,2301.733938 1281.704890,2312.381200 1347.081068,2277.312981 1363.171963,2307.076189 1292.656593,2344.904601 1298.243393,2355.239000"/>
    <poly id="146109229" type="building.yes" color="255,230,230" fill="1" layer="-1.00" shape="2019.373944,2351.717876 2008.771570,2357.433623 1995.074188,2365.044974 2001.813529,2377.080958 2013.029653,2397.551542 2037.346609,2384.191398 2019.373944,2351.717876"/>
    <poly id="146220936" type="building.commercial" color="255,230,230" fill="1" layer="-1.00" shape="1796.374251,1820.577856 1830.491656,1802.390866 1820.914760,1784.570984 1811.337816,1766.751115 1801.769266,1748.931358 1767.643252,1767.118382 1796.374251,1820.577856"/>
    <poly id="146257145" type="building.office" color="255,230,230" fill="1" layer="-1.00" shape="2444.233536,2367.248434 2440.647781,2360.611513 2434.293878,2348.879404 2441.158654,2345.163132 2438.300012,2339.867037 2444.654958,2336.433433 2444.745718,2336.612137 2448.472103,2343.494964 2470.842102,2331.390088 2479.823198,2347.993730 2444.233536,2367.248434"/>
    <poly id="146278002" type="building.commercial" color="255,230,230" fill="1" layer="-1.00" shape="1820.716680,1889.784741 1815.552694,1880.143220 1813.866948,1877.014914 1804.654149,1859.832127 1803.051252,1856.838017 1797.424220,1846.358439 1836.196528,1825.727789 1859.488833,1869.154214 1820.716680,1889.784741"/>
    <poly id="146278003" type="building.commercial" color="255,230,230" fill="1" layer="-1.00" shape="1815.552694,1880.143220 1813.866948,1877.014914 1804.654149,1859.832127 1803.051252,1856.838017 1793.579215,1861.867830 1786.944480,1849.478016 1732.507793,1878.408370 1758.187599,1926.358720 1812.547427,1897.483175 1805.987175,1885.227438 1815.552694,1880.143220"/>
    <poly id="147301613" type="building.yes" color="255,230,230" fill="1" layer="-1.00" shape="2292.211426,1821.317602 2291.550186,1820.110796 2283.797357,1805.942134 2280.978895,1800.790913 2271.479559,1805.953033 2270.759355,1804.734436 2260.604824,1786.585213 2256.738984,1788.671499 2239.797989,1797.754286 2227.189346,1804.567541 2226.804016,1805.029317 2226.695690,1805.627570 2226.849307,1806.206689 2247.397839,1844.406354 2247.648995,1844.586936 2248.221183,1844.749080 2248.516891,1844.730344 2249.017664,1844.503070 2261.786907,1837.669533 2282.720549,1826.479806 2292.211426,1821.317602"/>
    <poly id="148241073" type="building.commercial" color="255,230,230" fill="1" layer="-1.00" shape="2039.536244,2264.179255 2057.647273,2254.554621 2066.363043,2270.832660 2048.260481,2280.457372 2039.536244,2264.179255"/>
    <poly id="148457887" type="building.yes" color="255,230,230" fill="1" layer="-1.00" shape="1449.363261,1539.347265 1446.228108,1533.781920 1436.260005,1515.369613 1433.937414,1511.079369 1421.737498,1517.621177 1417.241285,1509.297782 1410.124740,1496.147790 1409.397341,1494.807073 1475.197959,1459.478295 1502.795629,1510.491950 1471.240174,1527.588907 1449.363261,1539.347265"/>
    <poly id="150389899" type="building.yes" color="255,230,230" fill="1" layer="-1.00" shape="2301.676354,1632.057222 2299.133018,1627.197885 2293.567665,1616.541007 2291.511902,1617.616008 2287.721097,1610.421663 2282.798661,1601.093508 2284.922350,1599.985995 2278.828413,1588.323723 2276.285046,1583.464395 2305.692904,1568.221898 2331.075636,1616.814727 2301.676354,1632.057222"/>
    <poly id="150389907" type="building.yes" color="255,230,230" fill="1" layer="-1.00" shape="2442.569077,2191.457436 2546.125562,2135.765366 2545.265075,2134.278633 2536.078046,2117.228405 2525.765982,2098.210947 2517.139791,2082.277575 2413.574493,2137.958853 2442.569077,2191.457436"/>
    <poly id="150397674" type="building.yes" color="255,230,230" fill="1" layer="-1.00" shape="2291.600824,1876.943933 2276.952545,1884.910005 2274.743352,1886.116436 2262.642513,1864.047470 2305.415053,1840.779422 2313.697101,1855.886914 2310.324004,1857.712501 2314.258415,1864.886346 2310.732336,1866.798955 2316.485126,1877.291523 2316.708219,1877.704926 2310.199704,1881.247866 2297.692558,1888.051088 2294.568195,1882.352259 2291.600824,1876.943933"/>
    <poly id="150401084" type="building.yes" color="255,230,230" fill="1" layer="-1.00" shape="2211.036048,1768.795357 2239.224353,1753.804770 2239.581106,1753.620216 2236.937779,1748.648704 2231.311394,1738.157689 2226.246776,1728.716880 2232.983690,1725.143236 2222.449904,1705.479717 2221.957173,1705.740394 2187.167673,1724.239705 2211.036048,1768.795357"/>
    <poly id="150402504" type="building.office" color="255,230,230" fill="1" layer="-1.00" shape="2214.708142,1855.236280 2190.909927,1868.102365 2188.554772,1863.755975 2179.878487,1847.689214 2176.531824,1841.499332 2165.733547,1847.290293 2160.420239,1837.458033 2157.800395,1832.642257 2192.389069,1813.940626 2214.708142,1855.236280"/>
    <poly id="157835453" type="building.yes" color="255,230,230" fill="1" layer="-1.00" shape="858.601332,2073.527714 860.965882,2077.851567 863.811957,2076.296804 867.739054,2083.480866 864.927002,2085.013816 863.185440,2085.959605 865.869673,2086.723338 870.194653,2087.961205 882.174621,2109.848771 880.257541,2112.835338 878.271910,2115.909932 881.084980,2114.288181 886.574957,2124.299162 890.924562,2121.940206 889.676121,2119.660937 895.215162,2116.649585 897.049324,2120.112455 898.800213,2114.703689 922.213654,2101.984518 927.297854,2105.462736 929.353638,2105.086806 961.760740,2087.753219 965.693829,2085.644844 939.336351,2036.779139 935.656349,2038.901555 933.203080,2034.221381 935.983116,2031.078264 932.467468,2032.858412 898.089074,2050.546840 893.823964,2052.895666 895.987947,2057.772326 873.916690,2069.763227 868.437248,2066.147258 869.246146,2067.744214 858.601332,2073.527714"/>
    <poly id="159028631" type="leisure.park" color="207,245,201" fill="1" layer="-2.00" shape="1608.905022,2158.743243 1606.003900,2153.413687 1618.212049,2146.816785 1642.042237,2133.938177 1642.534789,2133.688563 1646.918534,2131.319340 1647.199580,2131.833318 1647.836087,2132.995367 1648.894291,2134.917283 1649.555604,2136.124030 1649.820025,2136.615610 1645.266168,2139.093872 1608.905022,2158.743243"/>
    <poly id="159843711" type="building.yes" color="255,230,230" fill="1" layer="-1.00" shape="2258.083785,2381.404546 2273.962543,2372.808965 2271.475291,2368.227841 2259.921826,2347.064549 2259.525136,2346.338246 2245.396465,2353.988491 2248.437808,2359.553107 2246.747159,2360.465864 2255.656002,2376.790818 2258.083785,2381.404546"/>
    <poly id="160915057" type="building.yes" color="255,230,230" fill="1" layer="-1.00" shape="980.207486,1524.550970 953.692606,1538.821780 947.831740,1527.996021 940.994487,1515.449247 939.928207,1513.471838 926.304399,1488.367797 925.750599,1487.339997 952.087300,1473.155844 957.759947,1483.468728 942.272580,1491.782991 945.132883,1497.056279 947.976427,1502.318273 963.463778,1494.004021 967.450844,1501.133306 974.330661,1513.647290 980.207486,1524.550970"/>
    <poly id="161151013" type="building.commercial" color="255,230,230" fill="1" layer="-1.00" shape="1851.579833,1920.354290 1844.889401,1907.686212 1874.789585,1892.025918 1899.642868,1939.101157 1869.742815,1954.761349 1862.697253,1941.422970 1862.460884,1940.698563 1851.981658,1921.369287 1851.579833,1920.354290"/>