<?xml version="1.0" encoding="UTF-8"?>

<!-- generated on Sat Jul 18 00:28:39 2020 by Eclipse SUMO netconvert Version 1.6.0
<configuration xmlns:xsi="http://www.w3.org/2001/XMLSchema-instance" xsi:noNamespaceSchemaLocation="http://sumo.dlr.de/xsd/netconvertConfiguration.xsd">

    <input>
        <type-files value="/usr/share/sumo/data/typemap/osmNetconvert.typ.xml"/>
        <osm-files value="osm_bbox.osm.xml"/>
    </input>

    <output>
        <output-file value="osm.net.xml"/>
        <output.street-names value="true"/>
        <output.original-names value="true"/>
    </output>

    <projection>
        <proj.utm value="true"/>
    </projection>

    <processing>
        <geometry.remove value="true"/>
        <roundabouts.guess value="true"/>
    </processing>

    <tls_building>
        <tls.discard-simple value="true"/>
        <tls.join value="true"/>
        <tls.guess-signals value="true"/>
        <tls.default-type value="actuated"/>
    </tls_building>

    <ramp_guessing>
        <ramps.guess value="true"/>
    </ramp_guessing>

    <junctions>
        <junctions.join value="true"/>
        <junctions.corner-detail value="5"/>
    </junctions>

    <report>
        <verbose value="true"/>
        <aggregate-warnings value="5"/>
    </report>

</configuration>
-->

<net version="1.6" junctionCornerDetail="5" limitTurnSpeed="5.50" xmlns:xsi="http://www.w3.org/2001/XMLSchema-instance" xsi:noNamespaceSchemaLocation="http://sumo.dlr.de/xsd/net_file.xsd">

    <location netOffset="-584641.24,-4510300.18" convBoundary="0.00,0.00,5465.21,7110.62" origBoundary="-73.997127,40.733280,-70.553657,41.490781" projParameter="+proj=utm +zone=18 +ellps=WGS84 +datum=WGS84 +units=m +no_defs"/>

    <type id="highway.bridleway" priority="1" numLanes="1" speed="2.78" allow="pedestrian" oneway="1" width="2.00"/>
    <type id="highway.bus_guideway" priority="1" numLanes="1" speed="27.78" allow="bus" oneway="1"/>
    <type id="highway.cycleway" priority="1" numLanes="1" speed="8.33" allow="bicycle" oneway="0" width="1.00"/>
    <type id="highway.footway" priority="1" numLanes="1" speed="2.78" allow="pedestrian" oneway="1" width="2.00"/>
    <type id="highway.ford" priority="1" numLanes="1" speed="2.78" allow="army" oneway="0"/>
    <type id="highway.living_street" priority="2" numLanes="1" speed="2.78" disallow="tram rail_urban rail rail_electric rail_fast ship" oneway="0"/>
    <type id="highway.motorway" priority="14" numLanes="2" speed="39.44" allow="private emergency authority army vip passenger hov taxi bus coach delivery truck trailer motorcycle evehicle custom1 custom2" oneway="1"/>
    <type id="highway.motorway_link" priority="9" numLanes="1" speed="22.22" allow="private emergency authority army vip passenger hov taxi bus coach delivery truck trailer motorcycle evehicle custom1 custom2" oneway="1"/>
    <type id="highway.path" priority="1" numLanes="1" speed="2.78" allow="pedestrian bicycle" oneway="1" width="2.00"/>
    <type id="highway.pedestrian" priority="1" numLanes="1" speed="2.78" allow="pedestrian" oneway="1" width="2.00"/>
    <type id="highway.primary" priority="12" numLanes="2" speed="27.78" disallow="tram rail_urban rail rail_electric rail_fast ship" oneway="0"/>
    <type id="highway.primary_link" priority="7" numLanes="1" speed="22.22" disallow="tram rail_urban rail rail_electric rail_fast ship" oneway="0"/>
    <type id="highway.raceway" priority="15" numLanes="2" speed="83.33" allow="vip" oneway="0"/>
    <type id="highway.residential" priority="3" numLanes="1" speed="13.89" disallow="tram rail_urban rail rail_electric rail_fast ship" oneway="0"/>
    <type id="highway.secondary" priority="11" numLanes="1" speed="27.78" disallow="tram rail_urban rail rail_electric rail_fast ship" oneway="0"/>
    <type id="highway.secondary_link" priority="6" numLanes="1" speed="22.22" disallow="tram rail_urban rail rail_electric rail_fast ship" oneway="0"/>
    <type id="highway.service" priority="1" numLanes="1" speed="5.56" allow="pedestrian delivery bicycle" oneway="0"/>
    <type id="highway.stairs" priority="1" numLanes="1" speed="1.39" allow="pedestrian" oneway="1" width="2.00"/>
    <type id="highway.step" priority="1" numLanes="1" speed="1.39" allow="pedestrian" oneway="1" width="2.00"/>
    <type id="highway.steps" priority="1" numLanes="1" speed="1.39" allow="pedestrian" oneway="1" width="2.00"/>
    <type id="highway.tertiary" priority="10" numLanes="1" speed="22.22" disallow="tram rail_urban rail rail_electric rail_fast ship" oneway="0"/>
    <type id="highway.tertiary_link" priority="5" numLanes="1" speed="22.22" disallow="tram rail_urban rail rail_electric rail_fast ship" oneway="0"/>
    <type id="highway.track" priority="1" numLanes="1" speed="5.56" disallow="tram rail_urban rail rail_electric rail_fast ship" oneway="0"/>
    <type id="highway.trunk" priority="13" numLanes="2" speed="27.78" disallow="pedestrian bicycle tram rail_urban rail rail_electric rail_fast ship" oneway="0"/>
    <type id="highway.trunk_link" priority="8" numLanes="1" speed="22.22" disallow="pedestrian bicycle tram rail_urban rail rail_electric rail_fast ship" oneway="0"/>
    <type id="highway.unclassified" priority="4" numLanes="1" speed="13.89" disallow="tram rail_urban rail rail_electric rail_fast ship" oneway="0"/>
    <type id="highway.unsurfaced" priority="1" numLanes="1" speed="8.33" disallow="tram rail_urban rail rail_electric rail_fast ship" oneway="0"/>
    <type id="railway.highspeed" priority="21" numLanes="1" speed="69.44" allow="rail_fast" oneway="1"/>
    <type id="railway.light_rail" priority="19" numLanes="1" speed="27.78" allow="rail_urban" oneway="1"/>
    <type id="railway.preserved" priority="16" numLanes="1" speed="27.78" allow="rail" oneway="1"/>
    <type id="railway.rail" priority="20" numLanes="1" speed="44.44" allow="rail" oneway="1"/>
    <type id="railway.subway" priority="18" numLanes="1" speed="27.78" allow="rail_urban" oneway="1"/>
    <type id="railway.tram" priority="17" numLanes="1" speed="13.89" allow="tram" oneway="1"/>

    <edge id=":100521831_0" function="internal">
        <lane id=":100521831_0_0" index="0" disallow="tram rail_urban rail rail_electric rail_fast ship" speed="27.78" length="8.18" shape="1663.66,1455.07 1662.38,1453.04 1661.17,1451.87 1659.94,1450.70 1658.60,1448.71"/>
    </edge>
    <edge id=":1289222404_0" function="internal">
        <lane id=":1289222404_0_0" index="0" disallow="tram rail_urban rail rail_electric rail_fast ship" speed="13.89" length="5.00" shape="1177.80,1518.94 1182.20,1516.56"/>
    </edge>
    <edge id=":1289222416_0" function="internal">
        <lane id=":1289222416_0_0" index="0" disallow="tram rail_urban rail rail_electric rail_fast ship" speed="13.89" length="4.97" shape="1074.67,1575.12 1079.04,1572.74"/>
    </edge>
    <edge id=":1289222420_0" function="internal">
        <lane id=":1289222420_0_0" index="0" disallow="tram rail_urban rail rail_electric rail_fast ship" speed="11.18" length="4.98" shape="1262.03,1663.71 1257.64,1666.08"/>
        <lane id=":1289222420_0_1" index="1" disallow="tram rail_urban rail rail_electric rail_fast ship" speed="11.18" length="4.98" shape="1260.51,1660.90 1256.12,1663.27"/>
    </edge>
    <edge id=":1289222420_2" function="internal">
        <lane id=":1289222420_2_0" index="0" disallow="tram rail_urban rail rail_electric rail_fast ship" speed="3.65" length="2.34" shape="1260.51,1660.90 1259.07,1660.76 1258.34,1660.25"/>
    </edge>
    <edge id=":1289222420_6" function="internal">
        <lane id=":1289222420_6_0" index="0" disallow="tram rail_urban rail rail_electric rail_fast ship" speed="3.65" length="2.34" shape="1258.34,1660.25 1258.31,1659.35 1258.99,1658.08"/>
    </edge>
    <edge id=":1289222420_3" function="internal">
        <lane id=":1289222420_3_0" index="0" disallow="tram rail_urban rail rail_electric rail_fast ship" speed="11.18" length="5.00" shape="1253.08,1657.64 1257.47,1655.26"/>
        <lane id=":1289222420_3_1" index="1" disallow="tram rail_urban rail rail_electric rail_fast ship" speed="11.18" length="5.00" shape="1254.60,1660.45 1258.99,1658.08"/>
    </edge>
    <edge id=":1289222420_5" function="internal">
        <lane id=":1289222420_5_0" index="0" disallow="tram rail_urban rail rail_electric rail_fast ship" speed="3.65" length="2.34" shape="1254.60,1660.45 1256.03,1660.59 1256.77,1661.10"/>
    </edge>
    <edge id=":1289222420_7" function="internal">
        <lane id=":1289222420_7_0" index="0" disallow="tram rail_urban rail rail_electric rail_fast ship" speed="3.65" length="2.34" shape="1256.77,1661.10 1256.80,1661.99 1256.12,1663.27"/>
    </edge>
    <edge id=":1289222431_0" function="internal">
        <lane id=":1289222431_0_0" index="0" disallow="tram rail_urban rail rail_electric rail_fast ship" speed="11.18" length="5.03" shape="1158.13,1719.87 1153.70,1722.26"/>
        <lane id=":1289222431_0_1" index="1" disallow="tram rail_urban rail rail_electric rail_fast ship" speed="11.18" length="5.03" shape="1156.61,1717.05 1152.18,1719.44"/>
    </edge>
    <edge id=":1289222431_2" function="internal">
        <lane id=":1289222431_2_0" index="0" disallow="tram rail_urban rail rail_electric rail_fast ship" speed="3.65" length="4.67" shape="1156.61,1717.05 1155.18,1716.92 1154.44,1716.41 1154.41,1715.51 1155.09,1714.24"/>
    </edge>
    <edge id=":1289222431_3" function="internal">
        <lane id=":1289222431_3_0" index="0" disallow="tram rail_urban rail rail_electric rail_fast ship" speed="11.18" length="5.01" shape="1149.16,1713.80 1153.57,1711.42"/>
        <lane id=":1289222431_3_1" index="1" disallow="tram rail_urban rail rail_electric rail_fast ship" speed="11.18" length="5.01" shape="1150.67,1716.62 1155.09,1714.24"/>
    </edge>
    <edge id=":1289222431_5" function="internal">
        <lane id=":1289222431_5_0" index="0" disallow="tram rail_urban rail rail_electric rail_fast ship" speed="3.65" length="4.67" shape="1150.67,1716.62 1152.11,1716.75 1152.84,1717.27 1152.86,1718.16 1152.18,1719.44"/>
    </edge>
    <edge id=":1690450548_0" function="internal">
        <lane id=":1690450548_0_0" index="0" allow="pedestrian delivery bicycle" speed="16.67" length="9.77" shape="1717.15,1445.33 1725.78,1449.92"/>
    </edge>
    <edge id=":1690450548_1" function="internal">
        <lane id=":1690450548_1_0" index="0" disallow="tram rail_urban rail rail_electric rail_fast ship" speed="14.85" length="10.28" shape="1717.15,1445.33 1719.62,1447.03 1721.07,1448.54 1722.16,1450.39 1723.57,1453.09"/>
    </edge>
    <edge id=":1745991208_0" function="internal">
        <lane id=":1745991208_0_0" index="0" disallow="tram rail_urban rail rail_electric rail_fast ship" speed="13.89" length="4.99" shape="1953.77,1833.80 1958.14,1831.38"/>
    </edge>
    <edge id=":1745991209_0" function="internal">
        <lane id=":1745991209_0_0" index="0" disallow="tram rail_urban rail rail_electric rail_fast ship" speed="27.78" length="4.99" shape="1995.67,1901.68 1991.30,1904.08"/>
    </edge>
    <edge id=":1745991210_0" function="internal">
        <lane id=":1745991210_0_0" index="0" disallow="tram rail_urban rail rail_electric rail_fast ship" speed="13.89" length="5.01" shape="1185.18,2248.06 1189.59,2245.68"/>
    </edge>
    <edge id=":1745991212_0" function="internal">
        <lane id=":1745991212_0_0" index="0" disallow="tram rail_urban rail rail_electric rail_fast ship" speed="27.78" length="5.02" shape="1227.29,2316.29 1222.87,2318.67"/>
    </edge>
    <edge id=":1745991214_0" function="internal">
        <lane id=":1745991214_0_0" index="0" disallow="tram rail_urban rail rail_electric rail_fast ship" speed="27.78" length="5.00" shape="1259.70,2388.22 1264.11,2385.86"/>
        <lane id=":1745991214_0_1" index="1" disallow="tram rail_urban rail rail_electric rail_fast ship" speed="27.78" length="5.00" shape="1261.21,2391.04 1265.62,2388.69"/>
    </edge>
    <edge id=":1752946324_0" function="internal">
        <lane id=":1752946324_0_0" index="0" disallow="tram rail_urban rail rail_electric rail_fast ship" speed="11.18" length="5.02" shape="991.20,1809.91 986.78,1812.28"/>
        <lane id=":1752946324_0_1" index="1" disallow="tram rail_urban rail rail_electric rail_fast ship" speed="11.18" length="5.02" shape="989.69,1807.09 985.26,1809.46"/>
    </edge>
    <edge id=":1752946324_2" function="internal">
        <lane id=":1752946324_2_0" index="0" disallow="tram rail_urban rail rail_electric rail_fast ship" speed="3.65" length="2.34" shape="989.69,1807.09 988.26,1806.95 987.53,1806.43"/>
    </edge>
    <edge id=":1752946324_6" function="internal">
        <lane id=":1752946324_6_0" index="0" disallow="tram rail_urban rail rail_electric rail_fast ship" speed="3.65" length="2.34" shape="987.53,1806.43 987.50,1805.54 988.19,1804.27"/>
    </edge>
    <edge id=":1752946324_3" function="internal">
        <lane id=":1752946324_3_0" index="0" disallow="tram rail_urban rail rail_electric rail_fast ship" speed="11.18" length="5.04" shape="982.23,1803.83 986.68,1801.44"/>
        <lane id=":1752946324_3_1" index="1" disallow="tram rail_urban rail rail_electric rail_fast ship" speed="11.18" length="5.04" shape="983.75,1806.64 988.19,1804.27"/>
    </edge>
    <edge id=":1752946324_5" function="internal">
        <lane id=":1752946324_5_0" index="0" disallow="tram rail_urban rail rail_electric rail_fast ship" speed="3.65" length="2.34" shape="983.75,1806.64 985.18,1806.78 985.91,1807.29"/>
    </edge>
    <edge id=":1752946324_7" function="internal">
        <lane id=":1752946324_7_0" index="0" disallow="tram rail_urban rail rail_electric rail_fast ship" speed="3.65" length="2.34" shape="985.91,1807.29 985.94,1808.19 985.26,1809.46"/>
    </edge>
    <edge id=":1752946328_0" function="internal">
        <lane id=":1752946328_0_0" index="0" disallow="tram rail_urban rail rail_electric rail_fast ship" speed="13.89" length="5.00" shape="1029.89,1880.73 1025.49,1883.10"/>
    </edge>
    <edge id=":1758380526_0" function="internal">
        <lane id=":1758380526_0_0" index="0" allow="pedestrian delivery bicycle" speed="6.09" length="7.76" shape="996.25,2353.73 995.96,2352.34 996.54,2350.92 998.00,2349.48 1000.33,2348.00"/>
    </edge>
    <edge id=":1758380526_1" function="internal">
        <lane id=":1758380526_1_0" index="0" allow="pedestrian delivery bicycle" speed="2.24" length="4.67" shape="996.25,2353.73 996.39,2352.29 996.91,2351.56 997.81,2351.54 999.08,2352.22"/>
    </edge>
    <edge id=":1758380526_2" function="internal">
        <lane id=":1758380526_2_0" index="0" disallow="tram rail_urban rail rail_electric rail_fast ship" speed="13.89" length="9.40" shape="992.06,2352.46 1000.33,2348.00"/>
    </edge>
    <edge id=":1758380526_3" function="internal">
        <lane id=":1758380526_3_0" index="0" allow="pedestrian delivery bicycle" speed="6.08" length="7.77" shape="992.06,2352.46 994.58,2351.32 996.59,2350.90 998.09,2351.20 999.08,2352.22"/>
    </edge>
    <edge id=":1762449346_0" function="internal">
        <lane id=":1762449346_0_0" index="0" allow="pedestrian delivery bicycle" speed="2.24" length="4.67" shape="1030.70,2411.02 1030.56,2412.46 1030.05,2413.19 1029.15,2413.22 1027.88,2412.54"/>
    </edge>
    <edge id=":1775176474_0" function="internal">
        <lane id=":1775176474_0_0" index="0" allow="private emergency authority army vip passenger hov taxi bus coach delivery truck trailer motorcycle evehicle custom1 custom2" speed="30.83" length="8.90" shape="2890.29,2410.21 2882.35,2414.36"/>
        <lane id=":1775176474_0_1" index="1" allow="private emergency authority army vip passenger hov taxi bus coach delivery truck trailer motorcycle evehicle custom1 custom2" speed="30.83" length="8.90" shape="2888.75,2407.40 2880.91,2411.50"/>
    </edge>
    <edge id=":1775176474_2" function="internal">
        <lane id=":1775176474_2_0" index="0" allow="private emergency authority army vip passenger hov taxi bus coach delivery truck trailer motorcycle evehicle custom1 custom2" speed="30.83" length="8.74" shape="2887.22,2404.60 2884.82,2405.63 2883.03,2406.01 2881.27,2406.42 2878.93,2407.55"/>
        <lane id=":1775176474_2_1" index="1" allow="private emergency authority army vip passenger hov taxi bus coach delivery truck trailer motorcycle evehicle custom1 custom2" speed="30.83" length="8.74" shape="2885.68,2401.79 2883.32,2402.80 2881.55,2403.17 2879.80,2403.57 2877.49,2404.68"/>
        <lane id=":1775176474_2_2" index="2" allow="private emergency authority army vip passenger hov taxi bus coach delivery truck trailer motorcycle evehicle custom1 custom2" speed="30.83" length="8.74" shape="2884.15,2398.98 2881.81,2399.98 2880.06,2400.33 2878.33,2400.72 2876.05,2401.81"/>
    </edge>
    <edge id=":1775201764_0" function="internal">
        <lane id=":1775201764_0_0" index="0" allow="private emergency authority army vip passenger hov taxi bus coach delivery truck trailer motorcycle evehicle custom1 custom2" speed="3.90" length="2.61" shape="2896.21,2423.38 2896.63,2423.97 2897.13,2424.28 2897.72,2424.31 2898.39,2424.06"/>
    </edge>
    <edge id=":1912138142_0" function="internal">
        <lane id=":1912138142_0_0" index="0" allow="rail rail_electric rail_fast" speed="4.47" length="65.03" shape="1876.48,1817.39 1881.30,1827.90 1890.29,1846.82 1899.39,1865.69 1904.53,1876.05"/>
    </edge>
    <edge id=":1912138142_1" function="internal">
        <lane id=":1912138142_1_0" index="0" allow="rail" speed="4.47" length="65.14" shape="1876.48,1817.39 1901.54,1877.52"/>
    </edge>
    <edge id=":1912138142_2" function="internal">
        <lane id=":1912138142_2_0" index="0" allow="rail rail_electric rail_fast" speed="4.47" length="65.15" shape="1873.42,1818.81 1904.53,1876.05"/>
    </edge>
    <edge id=":1912138142_3" function="internal">
        <lane id=":1912138142_3_0" index="0" allow="rail" speed="4.47" length="65.09" shape="1873.42,1818.81 1901.54,1877.52"/>
    </edge>
    <edge id=":2052618433_0" function="internal">
        <lane id=":2052618433_0_0" index="0" allow="rail_urban" speed="0.10" length="0.10" shape="1697.21,1426.52 1697.21,1426.52"/>
    </edge>
    <edge id=":2089938148_0" function="internal">
        <lane id=":2089938148_0_0" index="0" allow="private emergency authority army vip passenger hov taxi bus coach delivery truck trailer motorcycle evehicle custom1 custom2" speed="26.43" length="0.28" shape="3086.71,2270.71 3086.95,2270.58"/>
    </edge>
    <edge id=":2089938149_0" function="internal">
        <lane id=":2089938149_0_0" index="0" allow="private emergency authority army vip passenger hov taxi bus coach delivery truck trailer motorcycle evehicle custom1 custom2" speed="26.43" length="0.27" shape="3088.40,2273.24 3088.66,2273.08"/>
        <lane id=":2089938149_0_1" index="1" allow="private emergency authority army vip passenger hov taxi bus coach delivery truck trailer motorcycle evehicle custom1 custom2" speed="26.43" length="0.27" shape="3090.02,2275.99 3090.22,2275.88"/>
    </edge>
    <edge id=":2176936521_0" function="internal">
        <lane id=":2176936521_0_0" index="0" disallow="tram rail_urban rail rail_electric rail_fast ship" speed="27.78" length="5.00" shape="1315.40,1907.57 1311.00,1909.95"/>
    </edge>
    <edge id=":2176936535_0" function="internal">
        <lane id=":2176936535_0_0" index="0" disallow="tram rail_urban rail rail_electric rail_fast ship" speed="27.78" length="5.00" shape="1347.29,1979.86 1351.68,1977.49"/>
    </edge>
    <edge id=":2435108434_0" function="internal">
        <lane id=":2435108434_0_0" index="0" disallow="tram rail_urban rail rail_electric rail_fast ship" speed="27.78" length="5.35" shape="993.60,2171.15 998.29,2168.58"/>
    </edge>
    <edge id=":2711029280_0" function="internal">
        <lane id=":2711029280_0_0" index="0" disallow="tram rail_urban rail rail_electric rail_fast ship" speed="7.31" length="11.70" shape="2904.22,2143.11 2902.33,2144.75 2901.57,2147.03 2901.95,2149.94 2903.48,2153.48"/>
    </edge>
    <edge id=":2711029280_1" function="internal">
        <lane id=":2711029280_1_0" index="0" disallow="tram rail_urban rail rail_electric rail_fast ship" speed="27.78" length="14.84" shape="2904.22,2143.11 2901.53,2145.12 2899.42,2147.51 2896.92,2150.11 2893.05,2152.75"/>
    </edge>
    <edge id=":2711029280_2" function="internal">
        <lane id=":2711029280_2_0" index="0" disallow="tram rail_urban rail rail_electric rail_fast ship" speed="3.65" length="2.66" shape="2904.22,2143.11 2902.79,2142.97 2902.06,2142.46 2902.05,2142.14"/>
    </edge>
    <edge id=":2711029280_10" function="internal">
        <lane id=":2711029280_10_0" index="0" disallow="tram rail_urban rail rail_electric rail_fast ship" speed="3.65" length="2.02" shape="2902.05,2142.14 2902.03,2141.56 2902.70,2140.29"/>
    </edge>
    <edge id=":2711029280_3" function="internal">
        <lane id=":2711029280_3_0" index="0" disallow="tram rail_urban rail rail_electric rail_fast ship" speed="7.32" length="11.72" shape="2893.62,2135.20 2895.74,2138.42 2897.97,2140.35 2900.29,2140.97 2902.70,2140.29"/>
    </edge>
    <edge id=":2711029280_4" function="internal">
        <lane id=":2711029280_4_0" index="0" disallow="tram rail_urban rail rail_electric rail_fast ship" speed="11.18" length="20.78" shape="2893.62,2135.20 2903.48,2153.48"/>
        <lane id=":2711029280_4_1" index="1" disallow="tram rail_urban rail rail_electric rail_fast ship" speed="11.18" length="20.78" shape="2890.80,2136.71 2900.66,2155.01"/>
    </edge>
    <edge id=":2711029280_6" function="internal">
        <lane id=":2711029280_6_0" index="0" disallow="tram rail_urban rail rail_electric rail_fast ship" speed="8.10" length="14.57" shape="2890.80,2136.71 2892.97,2141.50 2893.81,2145.30 2893.34,2148.11 2891.53,2149.93"/>
    </edge>
    <edge id=":2711029280_7" function="internal">
        <lane id=":2711029280_7_0" index="0" disallow="tram rail_urban rail rail_electric rail_fast ship" speed="27.78" length="14.83" shape="2888.51,2144.29 2892.85,2142.53 2896.39,2141.87 2899.54,2141.43 2902.70,2140.29"/>
    </edge>
    <edge id=":2711029280_8" function="internal">
        <lane id=":2711029280_8_0" index="0" disallow="tram rail_urban rail rail_electric rail_fast ship" speed="8.11" length="1.97" shape="2890.02,2147.11 2891.95,2146.73"/>
    </edge>
    <edge id=":2711029280_9" function="internal">
        <lane id=":2711029280_9_0" index="0" disallow="tram rail_urban rail rail_electric rail_fast ship" speed="3.65" length="1.79" shape="2890.02,2147.11 2891.46,2147.25 2891.74,2147.45"/>
    </edge>
    <edge id=":2711029280_11" function="internal">
        <lane id=":2711029280_11_0" index="0" disallow="tram rail_urban rail rail_electric rail_fast ship" speed="8.11" length="12.60" shape="2891.95,2146.73 2892.53,2146.61 2895.14,2147.77 2897.85,2150.56 2900.66,2155.01"/>
    </edge>
    <edge id=":2711029280_12" function="internal">
        <lane id=":2711029280_12_0" index="0" disallow="tram rail_urban rail rail_electric rail_fast ship" speed="3.65" length="2.88" shape="2891.74,2147.45 2892.19,2147.77 2892.21,2148.66 2891.53,2149.93"/>
    </edge>
    <edge id=":3011333827_0" function="internal">
        <lane id=":3011333827_0_0" index="0" allow="pedestrian delivery bicycle" speed="3.65" length="4.67" shape="2699.62,1404.91 2699.61,1403.47 2700.05,1402.69 2700.93,1402.57 2702.27,1403.11"/>
    </edge>
    <edge id=":3060682017_0" function="internal">
        <lane id=":3060682017_0_0" index="0" disallow="tram rail_urban rail rail_electric rail_fast ship" speed="13.89" length="4.98" shape="2089.13,1760.68 2093.53,1758.35"/>
    </edge>
    <edge id=":32939514#1-AddedOnRampNode_0" function="internal">
        <lane id=":32939514#1-AddedOnRampNode_0_0" index="0" allow="private emergency authority army vip passenger hov taxi bus coach delivery truck trailer motorcycle evehicle custom1 custom2" speed="17.88" length="8.00" shape="2921.60,1679.24 2926.03,1685.90"/>
        <lane id=":32939514#1-AddedOnRampNode_0_1" index="1" allow="private emergency authority army vip passenger hov taxi bus coach delivery truck trailer motorcycle evehicle custom1 custom2" speed="17.88" length="8.00" shape="2918.94,1681.01 2923.37,1687.67"/>
        <lane id=":32939514#1-AddedOnRampNode_0_2" index="2" allow="private emergency authority army vip passenger hov taxi bus coach delivery truck trailer motorcycle evehicle custom1 custom2" speed="17.88" length="8.00" shape="2916.27,1682.78 2920.70,1689.44"/>
    </edge>
    <edge id=":32946656-AddedOnRampNode_0" function="internal">
        <lane id=":32946656-AddedOnRampNode_0_0" index="0" disallow="tram rail_urban rail rail_electric rail_fast ship" speed="27.78" length="8.00" shape="2822.25,1815.90 2815.23,1819.74"/>
    </edge>
    <edge id=":34768995#1-AddedOffRampNode_0" function="internal">
        <lane id=":34768995#1-AddedOffRampNode_0_0" index="0" allow="private emergency authority army vip passenger hov taxi bus coach delivery truck trailer motorcycle evehicle custom1 custom2" speed="39.44" length="8.20" shape="2869.05,1630.82 2867.26,1629.06 2865.49,1628.40 2863.72,1627.74 2861.92,1625.98"/>
        <lane id=":34768995#1-AddedOffRampNode_0_1" index="1" allow="private emergency authority army vip passenger hov taxi bus coach delivery truck trailer motorcycle evehicle custom1 custom2" speed="39.44" length="8.20" shape="2869.05,1630.82 2864.58,1624.19"/>
        <lane id=":34768995#1-AddedOffRampNode_0_2" index="2" allow="private emergency authority army vip passenger hov taxi bus coach delivery truck trailer motorcycle evehicle custom1 custom2" speed="39.44" length="8.20" shape="2871.71,1629.03 2867.23,1622.40"/>
        <lane id=":34768995#1-AddedOffRampNode_0_3" index="3" allow="private emergency authority army vip passenger hov taxi bus coach delivery truck trailer motorcycle evehicle custom1 custom2" speed="39.44" length="8.20" shape="2874.36,1627.23 2869.88,1620.61"/>
    </edge>
    <edge id=":34769004-AddedOffRampNode_0" function="internal">
        <lane id=":34769004-AddedOffRampNode_0_0" index="0" allow="private emergency authority army vip passenger hov taxi bus coach delivery truck trailer motorcycle evehicle custom1 custom2" speed="39.44" length="8.20" shape="3057.88,1884.19 3055.99,1882.53 3054.19,1881.97 3052.38,1881.41 3050.49,1879.76"/>
        <lane id=":34769004-AddedOffRampNode_0_1" index="1" allow="private emergency authority army vip passenger hov taxi bus coach delivery truck trailer motorcycle evehicle custom1 custom2" speed="39.44" length="8.20" shape="3057.88,1884.19 3053.04,1877.82"/>
        <lane id=":34769004-AddedOffRampNode_0_2" index="2" allow="private emergency authority army vip passenger hov taxi bus coach delivery truck trailer motorcycle evehicle custom1 custom2" speed="39.44" length="8.20" shape="3060.43,1882.25 3055.58,1875.88"/>
        <lane id=":34769004-AddedOffRampNode_0_3" index="3" allow="private emergency authority army vip passenger hov taxi bus coach delivery truck trailer motorcycle evehicle custom1 custom2" speed="39.44" length="8.20" shape="3062.98,1880.31 3058.13,1873.94"/>
    </edge>
    <edge id=":3569749127_0" function="internal">
        <lane id=":3569749127_0_0" index="0" disallow="tram rail_urban rail rail_electric rail_fast ship" speed="27.78" length="5.04" shape="2465.23,1377.38 2469.65,1374.97"/>
    </edge>
    <edge id=":3569749128_0" function="internal">
        <lane id=":3569749128_0_0" index="0" disallow="tram rail_urban rail rail_electric rail_fast ship" speed="27.78" length="7.28" shape="2491.65,1398.00 2492.50,1400.05 2493.11,1401.44 2493.64,1402.86 2494.27,1404.98"/>
        <lane id=":3569749128_0_1" index="1" disallow="tram rail_urban rail rail_electric rail_fast ship" speed="27.78" length="7.28" shape="2488.68,1399.19 2489.49,1401.14 2490.07,1402.46 2490.58,1403.81 2491.18,1405.83"/>
    </edge>
    <edge id=":3569749128_2" function="internal">
        <lane id=":3569749128_2_0" index="0" allow="bicycle" speed="18.05" length="7.85" shape="2486.46,1400.66 2488.00,1402.30 2489.67,1402.96 2491.18,1403.70 2492.24,1405.54"/>
    </edge>
    <edge id=":3569749130_0" function="internal">
        <lane id=":3569749130_0_0" index="0" disallow="tram rail_urban rail rail_electric rail_fast ship" speed="27.78" length="8.00" shape="2497.10,1415.26 2499.20,1422.98"/>
        <lane id=":3569749130_0_1" index="1" disallow="tram rail_urban rail rail_electric rail_fast ship" speed="27.78" length="8.00" shape="2494.01,1416.11 2496.11,1423.81"/>
    </edge>
    <edge id=":3569749143_0" function="internal">
        <lane id=":3569749143_0_0" index="0" disallow="tram rail_urban rail rail_electric rail_fast ship" speed="27.78" length="4.09" shape="2607.05,1572.85 2603.47,1574.84"/>
    </edge>
    <edge id=":3569749144_0" function="internal">
        <lane id=":3569749144_0_0" index="0" disallow="tram rail_urban rail rail_electric rail_fast ship" speed="13.89" length="4.11" shape="2612.23,1584.01 2608.60,1585.95"/>
    </edge>
    <edge id=":3569749145_0" function="internal">
        <lane id=":3569749145_0_0" index="0" disallow="tram rail_urban rail rail_electric rail_fast ship" speed="27.78" length="4.29" shape="2582.66,1586.17 2578.87,1588.21"/>
    </edge>
    <edge id=":3639382769_0" function="internal">
        <lane id=":3639382769_0_0" index="0" disallow="tram rail_urban rail rail_electric rail_fast ship" speed="6.49" length="9.03" shape="1643.05,1557.18 1641.60,1555.17 1639.86,1554.12 1637.82,1554.02 1635.49,1554.87"/>
    </edge>
    <edge id=":3639382769_1" function="internal">
        <lane id=":3639382769_1_0" index="0" disallow="tram rail_urban rail rail_electric rail_fast ship" speed="13.89" length="11.34" shape="1639.27,1546.50 1640.95,1549.19 1642.57,1551.10 1644.19,1553.01 1645.89,1555.68"/>
    </edge>
    <edge id=":3639382769_2" function="internal">