<?xml version="1.0" encoding="UTF-8"?>

<!-- generated on Mon Jun  1 12:50:53 2020 by Eclipse SUMO netconvert Version 1.6.0
<configuration xmlns:xsi="http://www.w3.org/2001/XMLSchema-instance" xsi:noNamespaceSchemaLocation="http://sumo.dlr.de/xsd/netconvertConfiguration.xsd">

    <input>
        <type-files value="/usr/share/sumo/data/typemap/osmNetconvert.typ.xml"/>
        <osm-files value="osm_bbox.osm.xml"/>
    </input>

    <output>
        <output-file value="osm.net.xml"/>
        <output.street-names value="true"/>
        <output.original-names value="true"/>
    </output>

    <projection>
        <proj.utm value="true"/>
    </projection>

    <processing>
        <geometry.remove value="true"/>
        <roundabouts.guess value="true"/>
    </processing>

    <tls_building>
        <tls.discard-simple value="true"/>
        <tls.join value="true"/>
        <tls.guess-signals value="true"/>
        <tls.default-type value="actuated"/>
    </tls_building>

    <ramp_guessing>
        <ramps.guess value="true"/>
    </ramp_guessing>

    <junctions>
        <junctions.join value="true"/>
        <junctions.corner-detail value="5"/>
    </junctions>

    <report>
        <verbose value="true"/>
        <aggregate-warnings value="5"/>
    </report>

</configuration>
-->

<net version="1.6" junctionCornerDetail="5" limitTurnSpeed="5.50" xmlns:xsi="http://www.w3.org/2001/XMLSchema-instance" xsi:noNamespaceSchemaLocation="http://sumo.dlr.de/xsd/net_file.xsd">

    <location netOffset="-389699.93,-5820060.58" convBoundary="0.00,0.00,2092.92,2308.66" origBoundary="13.374060,52.519671,13.404452,52.540646" projParameter="+proj=utm +zone=33 +ellps=WGS84 +datum=WGS84 +units=m +no_defs"/>

    <type id="highway.bridleway" priority="1" numLanes="1" speed="2.78" allow="pedestrian" oneway="1" width="2.00"/>
    <type id="highway.bus_guideway" priority="1" numLanes="1" speed="27.78" allow="bus" oneway="1"/>
    <type id="highway.cycleway" priority="1" numLanes="1" speed="8.33" allow="bicycle" oneway="0" width="1.00"/>
    <type id="highway.footway" priority="1" numLanes="1" speed="2.78" allow="pedestrian" oneway="1" width="2.00"/>
    <type id="highway.ford" priority="1" numLanes="1" speed="2.78" allow="army" oneway="0"/>
    <type id="highway.living_street" priority="2" numLanes="1" speed="2.78" disallow="tram rail_urban rail rail_electric rail_fast ship" oneway="0"/>
    <type id="highway.motorway" priority="14" numLanes="2" speed="39.44" allow="private emergency authority army vip passenger hov taxi bus coach delivery truck trailer motorcycle evehicle custom1 custom2" oneway="1"/>
    <type id="highway.motorway_link" priority="9" numLanes="1" speed="22.22" allow="private emergency authority army vip passenger hov taxi bus coach delivery truck trailer motorcycle evehicle custom1 custom2" oneway="1"/>
    <type id="highway.path" priority="1" numLanes="1" speed="2.78" allow="pedestrian bicycle" oneway="1" width="2.00"/>
    <type id="highway.pedestrian" priority="1" numLanes="1" speed="2.78" allow="pedestrian" oneway="1" width="2.00"/>
    <type id="highway.primary" priority="12" numLanes="2" speed="27.78" disallow="tram rail_urban rail rail_electric rail_fast ship" oneway="0"/>
    <type id="highway.primary_link" priority="7" numLanes="1" speed="22.22" disallow="tram rail_urban rail rail_electric rail_fast ship" oneway="0"/>
    <type id="highway.raceway" priority="15" numLanes="2" speed="83.33" allow="vip" oneway="0"/>
    <type id="highway.residential" priority="3" numLanes="1" speed="13.89" disallow="tram rail_urban rail rail_electric rail_fast ship" oneway="0"/>
    <type id="highway.secondary" priority="11" numLanes="1" speed="27.78" disallow="tram rail_urban rail rail_electric rail_fast ship" oneway="0"/>
    <type id="highway.secondary_link" priority="6" numLanes="1" speed="22.22" disallow="tram rail_urban rail rail_electric rail_fast ship" oneway="0"/>
    <type id="highway.service" priority="1" numLanes="1" speed="5.56" allow="pedestrian delivery bicycle" oneway="0"/>
    <type id="highway.service|railway.tram" priority="17" numLanes="1" speed="13.89" allow="pedestrian delivery bicycle tram" oneway="0"/>
    <type id="highway.stairs" priority="1" numLanes="1" speed="1.39" allow="pedestrian" oneway="1" width="2.00"/>
    <type id="highway.step" priority="1" numLanes="1" speed="1.39" allow="pedestrian" oneway="1" width="2.00"/>
    <type id="highway.steps" priority="1" numLanes="1" speed="1.39" allow="pedestrian" oneway="1" width="2.00"/>
    <type id="highway.tertiary" priority="10" numLanes="1" speed="22.22" disallow="tram rail_urban rail rail_electric rail_fast ship" oneway="0"/>
    <type id="highway.tertiary_link" priority="5" numLanes="1" speed="22.22" disallow="tram rail_urban rail rail_electric rail_fast ship" oneway="0"/>
    <type id="highway.track" priority="1" numLanes="1" speed="5.56" disallow="tram rail_urban rail rail_electric rail_fast ship" oneway="0"/>
    <type id="highway.trunk" priority="13" numLanes="2" speed="27.78" disallow="pedestrian bicycle tram rail_urban rail rail_electric rail_fast ship" oneway="0"/>
    <type id="highway.trunk_link" priority="8" numLanes="1" speed="22.22" disallow="pedestrian bicycle tram rail_urban rail rail_electric rail_fast ship" oneway="0"/>
    <type id="highway.unclassified" priority="4" numLanes="1" speed="13.89" disallow="tram rail_urban rail rail_electric rail_fast ship" oneway="0"/>
    <type id="highway.unsurfaced" priority="1" numLanes="1" speed="8.33" disallow="tram rail_urban rail rail_electric rail_fast ship" oneway="0"/>
    <type id="railway.highspeed" priority="21" numLanes="1" speed="69.44" allow="rail_fast" oneway="1"/>
    <type id="railway.light_rail" priority="19" numLanes="1" speed="27.78" allow="rail_urban" oneway="1"/>
    <type id="railway.preserved" priority="16" numLanes="1" speed="27.78" allow="rail" oneway="1"/>
    <type id="railway.rail" priority="20" numLanes="1" speed="44.44" allow="rail" oneway="1"/>
    <type id="railway.subway" priority="18" numLanes="1" speed="27.78" allow="rail_urban" oneway="1"/>
    <type id="railway.tram" priority="17" numLanes="1" speed="13.89" allow="tram" oneway="1"/>

    <edge id=":1075544310_0" function="internal">
        <lane id=":1075544310_0_0" index="0" disallow="tram rail_urban rail rail_electric rail_fast ship" speed="3.65" length="4.67" shape="1354.74,323.86 1355.11,322.47 1355.74,321.83 1356.63,321.95 1357.77,322.83"/>
    </edge>
    <edge id=":1178759084_0" function="internal">
        <lane id=":1178759084_0_0" index="0" allow="pedestrian delivery bicycle" speed="5.72" length="5.75" shape="422.84,1031.96 421.16,1031.42 419.73,1031.36 418.56,1031.79 417.63,1032.71"/>
    </edge>
    <edge id=":1178759084_1" function="internal">
        <lane id=":1178759084_1_0" index="0" allow="pedestrian delivery bicycle" speed="6.75" length="10.99" shape="422.84,1031.96 420.22,1030.34 418.90,1028.32 418.88,1025.91 420.16,1023.11"/>
    </edge>
    <edge id=":1178759084_2" function="internal">
        <lane id=":1178759084_2_0" index="0" allow="pedestrian delivery bicycle" speed="3.65" length="4.67" shape="422.84,1031.96 422.06,1030.75 422.02,1029.86 422.70,1029.29 424.12,1029.03"/>
    </edge>
    <edge id=":1178759084_3" function="internal">
        <lane id=":1178759084_3_0" index="0" allow="pedestrian delivery bicycle" speed="4.89" length="5.20" shape="422.85,1024.84 422.25,1026.17 422.26,1027.31 422.88,1028.26 424.12,1029.03"/>
    </edge>
    <edge id=":1178759084_4" function="internal">
        <lane id=":1178759084_4_0" index="0" disallow="tram rail_urban rail rail_electric rail_fast ship" speed="8.33" length="9.45" shape="422.85,1024.84 417.63,1032.71"/>
    </edge>
    <edge id=":1178759084_5" function="internal">
        <lane id=":1178759084_5_0" index="0" disallow="tram rail_urban rail rail_electric rail_fast ship" speed="3.65" length="2.34" shape="422.85,1024.84 421.53,1025.41 420.64,1025.32"/>
    </edge>
    <edge id=":1178759084_9" function="internal">
        <lane id=":1178759084_9_0" index="0" disallow="tram rail_urban rail rail_electric rail_fast ship" speed="3.65" length="2.34" shape="420.64,1025.32 420.19,1024.55 420.16,1023.11"/>
    </edge>
    <edge id=":1178759084_6" function="internal">
        <lane id=":1178759084_6_0" index="0" disallow="tram rail_urban rail rail_electric rail_fast ship" speed="8.33" length="9.34" shape="415.00,1030.89 420.16,1023.11"/>
    </edge>
    <edge id=":1178759084_7" function="internal">
        <lane id=":1178759084_7_0" index="0" allow="pedestrian delivery bicycle" speed="6.95" length="4.61" shape="415.00,1030.89 416.73,1029.09 418.67,1028.25"/>
    </edge>
    <edge id=":1178759084_8" function="internal">
        <lane id=":1178759084_8_0" index="0" disallow="tram rail_urban rail rail_electric rail_fast ship" speed="3.65" length="2.34" shape="415.00,1030.89 416.34,1030.36 417.22,1030.48"/>
    </edge>
    <edge id=":1178759084_10" function="internal">
        <lane id=":1178759084_10_0" index="0" allow="pedestrian delivery bicycle" speed="6.95" length="5.60" shape="418.67,1028.25 418.83,1028.18 421.29,1028.16 424.12,1029.03"/>
    </edge>
    <edge id=":1178759084_11" function="internal">
        <lane id=":1178759084_11_0" index="0" disallow="tram rail_urban rail rail_electric rail_fast ship" speed="3.65" length="2.34" shape="417.22,1030.48 417.65,1031.27 417.63,1032.71"/>
    </edge>
    <edge id=":1178759086_0" function="internal">
        <lane id=":1178759086_0_0" index="0" allow="pedestrian delivery bicycle" speed="3.65" length="4.67" shape="523.26,1074.45 524.04,1075.66 524.08,1076.56 523.39,1077.13 521.97,1077.37"/>
    </edge>
    <edge id=":1178759097_0" function="internal">
        <lane id=":1178759097_0_0" index="0" allow="pedestrian delivery bicycle" speed="3.65" length="4.67" shape="570.43,1011.06 571.14,1012.32 571.14,1013.21 570.42,1013.75 568.99,1013.92"/>
    </edge>
    <edge id=":1178759100_0" function="internal">
        <lane id=":1178759100_0_0" index="0" disallow="tram rail_urban rail rail_electric rail_fast ship" speed="8.33" length="5.01" shape="686.18,823.05 681.56,824.96"/>
    </edge>
    <edge id=":1178759100_1" function="internal">
        <lane id=":1178759100_1_0" index="0" disallow="tram rail_urban rail rail_electric rail_fast ship" speed="3.65" length="2.34" shape="686.18,823.05 684.77,822.76 684.09,822.18"/>
    </edge>
    <edge id=":1178759100_4" function="internal">
        <lane id=":1178759100_4_0" index="0" disallow="tram rail_urban rail rail_electric rail_fast ship" speed="3.65" length="2.34" shape="684.09,822.18 684.16,821.29 684.96,820.09"/>
    </edge>
    <edge id=":1178759100_2" function="internal">
        <lane id=":1178759100_2_0" index="0" disallow="tram rail_urban rail rail_electric rail_fast ship" speed="8.33" length="5.01" shape="680.33,822.00 684.96,820.09"/>
    </edge>
    <edge id=":1178759100_3" function="internal">
        <lane id=":1178759100_3_0" index="0" disallow="tram rail_urban rail rail_electric rail_fast ship" speed="3.65" length="2.34" shape="680.33,822.00 681.75,822.28 682.42,822.87"/>
    </edge>
    <edge id=":1178759100_5" function="internal">
        <lane id=":1178759100_5_0" index="0" disallow="tram rail_urban rail rail_electric rail_fast ship" speed="3.65" length="2.34" shape="682.42,822.87 682.36,823.76 681.56,824.96"/>
    </edge>
    <edge id=":1184076380_0" function="internal">
        <lane id=":1184076380_0_0" index="0" allow="pedestrian delivery bicycle" speed="3.65" length="4.67" shape="598.99,949.31 599.48,950.66 599.32,951.55 598.52,951.95 597.08,951.88"/>
    </edge>
    <edge id=":1184076387_0" function="internal">
        <lane id=":1184076387_0_0" index="0" allow="pedestrian delivery bicycle" speed="5.03" length="5.06" shape="534.78,905.32 533.58,904.62 532.44,904.47 531.38,904.88 530.40,905.85"/>
    </edge>
    <edge id=":1184076387_1" function="internal">
        <lane id=":1184076387_1_0" index="0" allow="pedestrian delivery bicycle" speed="6.84" length="10.32" shape="534.78,905.32 532.83,903.26 532.02,901.09 532.37,898.79 533.87,896.38"/>
    </edge>
    <edge id=":1184076387_2" function="internal">
        <lane id=":1184076387_2_0" index="0" allow="pedestrian delivery bicycle" speed="3.65" length="4.67" shape="534.78,905.32 534.34,903.95 534.52,903.07 535.33,902.69 536.77,902.81"/>
    </edge>
    <edge id=":1184076387_3" function="internal">
        <lane id=":1184076387_3_0" index="0" allow="pedestrian delivery bicycle" speed="5.01" length="5.04" shape="536.32,898.44 535.59,899.62 535.42,900.74 535.81,901.80 536.77,902.81"/>
    </edge>
    <edge id=":1184076387_4" function="internal">
        <lane id=":1184076387_4_0" index="0" disallow="tram rail_urban rail rail_electric rail_fast ship" speed="8.33" length="9.48" shape="536.32,898.44 530.40,905.85"/>
    </edge>
    <edge id=":1184076387_5" function="internal">
        <lane id=":1184076387_5_0" index="0" disallow="tram rail_urban rail rail_electric rail_fast ship" speed="3.65" length="2.34" shape="536.32,898.44 534.94,898.85 534.07,898.64"/>
    </edge>
    <edge id=":1184076387_9" function="internal">
        <lane id=":1184076387_9_0" index="0" disallow="tram rail_urban rail rail_electric rail_fast ship" speed="3.65" length="2.34" shape="534.07,898.64 533.71,897.81 533.87,896.38"/>
    </edge>
    <edge id=":1184076387_6" function="internal">
        <lane id=":1184076387_6_0" index="0" disallow="tram rail_urban rail rail_electric rail_fast ship" speed="8.33" length="9.65" shape="527.85,903.92 533.87,896.38"/>
    </edge>
    <edge id=":1184076387_7" function="internal">
        <lane id=":1184076387_7_0" index="0" allow="pedestrian delivery bicycle" speed="6.86" length="5.27" shape="527.85,903.92 529.86,901.94 532.01,901.09 532.14,901.11"/>
    </edge>
    <edge id=":1184076387_8" function="internal">
        <lane id=":1184076387_8_0" index="0" disallow="tram rail_urban rail rail_electric rail_fast ship" speed="3.65" length="2.34" shape="527.85,903.92 529.21,903.45 530.09,903.61"/>
    </edge>
    <edge id=":1184076387_10" function="internal">
        <lane id=":1184076387_10_0" index="0" allow="pedestrian delivery bicycle" speed="6.86" length="5.02" shape="532.14,901.11 534.31,901.38 536.77,902.81"/>
    </edge>
    <edge id=":1184076387_11" function="internal">
        <lane id=":1184076387_11_0" index="0" disallow="tram rail_urban rail rail_electric rail_fast ship" speed="3.65" length="2.34" shape="530.09,903.61 530.49,904.41 530.40,905.85"/>
    </edge>
    <edge id=":1202223399_0" function="internal">
        <lane id=":1202223399_0_0" index="0" disallow="tram rail_urban rail rail_electric rail_fast ship" speed="8.33" length="5.00" shape="344.46,621.54 344.05,626.52"/>
    </edge>
    <edge id=":1202223399_1" function="internal">
        <lane id=":1202223399_1_0" index="0" disallow="tram rail_urban rail rail_electric rail_fast ship" speed="3.65" length="4.67" shape="344.46,621.54 343.56,622.67 342.73,623.00 341.97,622.54 341.27,621.28"/>
    </edge>
    <edge id=":1202223399_2" function="internal">
        <lane id=":1202223399_2_0" index="0" disallow="tram rail_urban rail rail_electric rail_fast ship" speed="8.33" length="5.00" shape="340.86,626.26 341.27,621.28"/>
    </edge>
    <edge id=":1202223399_3" function="internal">
        <lane id=":1202223399_3_0" index="0" disallow="tram rail_urban rail rail_electric rail_fast ship" speed="3.65" length="4.67" shape="340.86,626.26 341.76,625.13 342.59,624.80 343.35,625.26 344.05,626.52"/>
    </edge>
    <edge id=":1203301045_0" function="internal">
        <lane id=":1203301045_0_0" index="0" allow="pedestrian delivery bicycle" speed="3.65" length="4.67" shape="518.71,594.21 520.07,593.75 520.95,593.92 521.34,594.72 521.24,596.16"/>
    </edge>
    <edge id=":1203301068_0" function="internal">
        <lane id=":1203301068_0_0" index="0" allow="pedestrian delivery bicycle" speed="5.56" length="8.08" shape="577.43,829.86 575.34,829.57 573.57,828.79 572.13,827.50 571.01,825.72"/>
    </edge>
    <edge id=":1203301068_1" function="internal">
        <lane id=":1203301068_1_0" index="0" allow="pedestrian delivery bicycle" speed="3.65" length="4.67" shape="577.43,829.86 576.24,829.04 575.85,828.23 576.26,827.44 577.47,826.66"/>
    </edge>
    <edge id=":1203301068_2" function="internal">
        <lane id=":1203301068_2_0" index="0" allow="pedestrian delivery bicycle" speed="5.56" length="4.49" shape="573.91,824.36 574.53,825.35 575.33,826.06 576.31,826.50 577.47,826.66"/>
    </edge>
    <edge id=":1203301068_3" function="internal">
        <lane id=":1203301068_3_0" index="0" allow="pedestrian delivery bicycle" speed="3.65" length="4.67" shape="573.91,824.36 573.69,825.78 573.14,826.48 572.24,826.46 571.01,825.72"/>
    </edge>
    <edge id=":1203301151_0" function="internal">
        <lane id=":1203301151_0_0" index="0" disallow="tram rail_urban rail rail_electric rail_fast ship" speed="8.33" length="5.01" shape="673.16,828.44 668.53,830.35"/>
    </edge>
    <edge id=":1203301151_1" function="internal">
        <lane id=":1203301151_1_0" index="0" disallow="tram rail_urban rail rail_electric rail_fast ship" speed="3.65" length="4.67" shape="673.16,828.44 671.75,828.16 671.07,827.57 671.13,826.68 671.94,825.48"/>
    </edge>
    <edge id=":1203301151_2" function="internal">
        <lane id=":1203301151_2_0" index="0" disallow="tram rail_urban rail rail_electric rail_fast ship" speed="8.33" length="5.00" shape="667.31,827.39 671.94,825.48"/>
    </edge>
    <edge id=":1203301151_3" function="internal">
        <lane id=":1203301151_3_0" index="0" disallow="tram rail_urban rail rail_electric rail_fast ship" speed="3.65" length="4.67" shape="667.31,827.39 668.72,827.67 669.40,828.26 669.33,829.15 668.53,830.35"/>
    </edge>
    <edge id=":1203301221_0" function="internal">
        <lane id=":1203301221_0_0" index="0" allow="pedestrian delivery bicycle" speed="5.56" length="7.01" shape="646.95,782.12 644.87,781.91 643.40,781.84 642.01,782.13 640.17,782.99"/>
    </edge>
    <edge id=":1203301221_1" function="internal">
        <lane id=":1203301221_1_0" index="0" allow="pedestrian delivery bicycle" speed="5.56" length="10.67" shape="646.95,782.12 644.05,781.47 642.16,780.05 641.26,777.86 641.37,774.89"/>
    </edge>
    <edge id=":1203301221_2" function="internal">
        <lane id=":1203301221_2_0" index="0" allow="pedestrian delivery bicycle" speed="3.65" length="4.67" shape="646.95,782.12 645.81,781.23 645.48,780.40 645.94,779.64 647.20,778.93"/>
    </edge>
    <edge id=":1203301221_3" function="internal">
        <lane id=":1203301221_3_0" index="0" allow="pedestrian delivery bicycle" speed="4.94" length="5.12" shape="644.52,775.46 644.47,776.88 644.90,777.94 645.81,778.62 647.20,778.93"/>
    </edge>
    <edge id=":1203301221_4" function="internal">
        <lane id=":1203301221_4_0" index="0" allow="pedestrian delivery bicycle" speed="5.56" length="8.98" shape="644.52,775.46 643.86,778.07 642.91,780.20 641.68,781.84 640.17,782.99"/>
    </edge>
    <edge id=":1203301221_5" function="internal">
        <lane id=":1203301221_5_0" index="0" allow="pedestrian delivery bicycle" speed="3.65" length="4.67" shape="644.52,775.46 643.52,776.50 642.66,776.75 641.94,776.21 641.37,774.89"/>
    </edge>
    <edge id=":1203301221_6" function="internal">
        <lane id=":1203301221_6_0" index="0" allow="pedestrian delivery bicycle" speed="5.56" length="6.14" shape="638.63,780.19 639.54,779.45 640.30,778.32 640.91,776.80 641.37,774.89"/>
    </edge>
    <edge id=":1203301221_7" function="internal">
        <lane id=":1203301221_7_0" index="0" allow="pedestrian delivery bicycle" speed="5.56" length="8.89" shape="638.63,780.19 640.96,779.07 642.71,778.65 644.57,778.69 647.20,778.93"/>
    </edge>
    <edge id=":1203301221_8" function="internal">
        <lane id=":1203301221_8_0" index="0" allow="pedestrian delivery bicycle" speed="3.65" length="4.67" shape="638.63,780.19 640.06,780.31 640.80,780.82 640.83,781.71 640.17,782.99"/>
    </edge>
    <edge id=":1203301227_0" function="internal">
        <lane id=":1203301227_0_0" index="0" allow="pedestrian delivery bicycle" speed="5.56" length="5.06" shape="629.21,791.22 628.71,789.85 628.03,788.77 627.16,787.98 626.12,787.49"/>
    </edge>
    <edge id=":1203301227_1" function="internal">
        <lane id=":1203301227_1_0" index="0" allow="pedestrian delivery bicycle" speed="5.56" length="9.04" shape="629.21,791.22 628.90,788.83 629.33,786.76 630.52,785.01 632.46,783.58"/>
    </edge>
    <edge id=":1203301227_2" function="internal">
        <lane id=":1203301227_2_0" index="0" allow="pedestrian delivery bicycle" speed="3.65" length="4.67" shape="629.21,791.22 629.67,789.85 630.34,789.25 631.22,789.43 632.30,790.38"/>
    </edge>
    <edge id=":1203301227_3" function="internal">
        <lane id=":1203301227_3_0" index="0" allow="pedestrian delivery bicycle" speed="5.35" length="4.73" shape="634.00,786.39 632.98,787.13 632.36,788.05 632.14,789.13 632.30,790.38"/>
    </edge>
    <edge id=":1203301227_4" function="internal">
        <lane id=":1203301227_4_0" index="0" allow="pedestrian delivery bicycle" speed="5.56" length="8.17" shape="634.00,786.39 631.96,787.30 629.97,787.79 628.02,787.85 626.12,787.49"/>
    </edge>
    <edge id=":1203301227_5" function="internal">
        <lane id=":1203301227_5_0" index="0" allow="pedestrian delivery bicycle" speed="3.65" length="4.67" shape="634.00,786.39 632.56,786.26 631.82,785.76 631.79,784.86 632.46,783.58"/>
    </edge>
    <edge id=":1203301227_6" function="internal">
        <lane id=":1203301227_6_0" index="0" allow="pedestrian delivery bicycle" speed="5.56" length="5.61" shape="627.06,784.43 628.32,784.66 629.64,784.60 631.02,784.24 632.46,783.58"/>
    </edge>
    <edge id=":1203301227_7" function="internal">
        <lane id=":1203301227_7_0" index="0" allow="pedestrian delivery bicycle" speed="5.56" length="8.29" shape="627.06,784.43 628.87,785.26 630.35,786.53 631.49,788.23 632.30,790.38"/>
    </edge>
    <edge id=":1203301227_8" function="internal">
        <lane id=":1203301227_8_0" index="0" allow="pedestrian delivery bicycle" speed="3.65" length="4.67" shape="627.06,784.43 627.97,785.55 628.12,786.43 627.50,787.08 626.12,787.49"/>
    </edge>
    <edge id=":1203692543_0" function="internal">
        <lane id=":1203692543_0_0" index="0" allow="pedestrian delivery bicycle" speed="3.65" length="4.67" shape="487.12,651.00 485.92,651.79 485.03,651.85 484.44,651.17 484.17,649.76"/>
    </edge>
    <edge id=":1203692731_0" function="internal">
        <lane id=":1203692731_0_0" index="0" allow="pedestrian delivery bicycle" speed="5.56" length="5.52" shape="566.35,709.47 562.09,705.96"/>
    </edge>
    <edge id=":1203692731_1" function="internal">
        <lane id=":1203692731_1_0" index="0" allow="pedestrian delivery bicycle" speed="3.65" length="4.67" shape="566.35,709.47 565.89,708.11 566.06,707.23 566.86,706.84 568.30,706.94"/>
    </edge>
    <edge id=":1203692731_2" function="internal">
        <lane id=":1203692731_2_0" index="0" allow="pedestrian delivery bicycle" speed="5.56" length="5.18" shape="564.34,703.61 565.57,704.52 566.36,705.22 567.12,705.96 568.30,706.94"/>
    </edge>
    <edge id=":1203692731_3" function="internal">
        <lane id=":1203692731_3_0" index="0" allow="pedestrian delivery bicycle" speed="3.67" length="4.74" shape="564.34,703.61 564.66,705.04 564.39,705.91 563.54,706.22 562.09,705.96"/>
    </edge>
    <edge id=":1203692834_0" function="internal">
        <lane id=":1203692834_0_0" index="0" allow="pedestrian delivery bicycle" speed="4.92" length="5.15" shape="581.94,720.53 580.61,720.01 579.47,720.07 578.53,720.72 577.80,721.95"/>
    </edge>
    <edge id=":1203692834_1" function="internal">
        <lane id=":1203692834_1_0" index="0" allow="pedestrian delivery bicycle" speed="5.56" length="9.29" shape="581.94,720.53 579.55,719.17 577.93,718.20 576.37,717.13 574.17,715.48"/>
    </edge>
    <edge id=":1203692834_2" function="internal">
        <lane id=":1203692834_2_0" index="0" allow="pedestrian delivery bicycle" speed="3.65" length="2.34" shape="581.94,720.53 581.30,719.24 581.34,718.35"/>
    </edge>
    <edge id=":1203692834_9" function="internal">
        <lane id=":1203692834_9_0" index="0" allow="pedestrian delivery bicycle" speed="3.65" length="2.34" shape="581.34,718.35 582.09,717.85 583.52,717.75"/>
    </edge>
    <edge id=":1203692834_3" function="internal">
        <lane id=":1203692834_3_0" index="0" allow="pedestrian delivery bicycle" speed="5.56" length="8.84" shape="576.12,712.94 578.22,714.52 579.70,715.53 581.24,716.46 583.52,717.75"/>
    </edge>
    <edge id=":1203692834_4" function="internal">
        <lane id=":1203692834_4_0" index="0" allow="pedestrian delivery bicycle" speed="5.56" length="4.65" shape="576.12,712.94 577.77,714.69 578.60,716.77"/>
    </edge>
    <edge id=":1203692834_5" function="internal">
        <lane id=":1203692834_5_0" index="0" allow="pedestrian delivery bicycle" speed="3.65" length="2.34" shape="576.12,712.94 576.59,714.30 576.42,715.18"/>
    </edge>
    <edge id=":1203692834_10" function="internal">
        <lane id=":1203692834_10_0" index="0" allow="pedestrian delivery bicycle" speed="5.56" length="5.29" shape="578.60,716.77 578.61,719.19 577.80,721.95"/>
    </edge>
    <edge id=":1203692834_11" function="internal">
        <lane id=":1203692834_11_0" index="0" allow="pedestrian delivery bicycle" speed="3.65" length="2.34" shape="576.42,715.18 575.61,715.57 574.17,715.48"/>
    </edge>
    <edge id=":1203692834_6" function="internal">
        <lane id=":1203692834_6_0" index="0" allow="pedestrian delivery bicycle" speed="5.56" length="5.71" shape="574.84,720.71 575.36,719.04 575.42,717.62 575.03,716.43 574.17,715.48"/>
    </edge>
    <edge id=":1203692834_7" function="internal">
        <lane id=":1203692834_7_0" index="0" allow="pedestrian delivery bicycle" speed="5.56" length="10.77" shape="574.84,720.71 576.39,718.14 578.35,716.78 580.73,716.66 583.52,717.75"/>
    </edge>
    <edge id=":1203692834_8" function="internal">
        <lane id=":1203692834_8_0" index="0" allow="pedestrian delivery bicycle" speed="3.65" length="4.67" shape="574.84,720.71 576.05,719.91 576.94,719.85 577.52,720.53 577.80,721.95"/>
    </edge>
    <edge id=":1206735742_0" function="internal">
        <lane id=":1206735742_0_0" index="0" disallow="tram rail_urban rail rail_electric rail_fast ship" speed="13.89" length="3.08" shape="515.99,1181.80 519.23,1184.89"/>
        <lane id=":1206735742_0_1" index="1" disallow="tram rail_urban rail rail_electric rail_fast ship" speed="13.89" length="3.08" shape="519.60,1180.59 520.56,1181.98"/>
    </edge>
    <edge id=":1206735742_2" function="internal">
        <lane id=":1206735742_2_0" index="0" disallow="tram rail_urban rail rail_electric rail_fast ship" speed="13.89" length="1.27" shape="523.23,1176.16 522.84,1177.30"/>
        <lane id=":1206735742_2_1" index="1" disallow="tram rail_urban rail rail_electric rail_fast ship" speed="13.89" length="1.27" shape="521.90,1179.07 522.02,1180.39"/>
    </edge>
    <edge id=":1206735742_4" function="internal">
        <lane id=":1206735742_4_0" index="0" disallow="tram rail_urban rail rail_electric rail_fast ship" speed="3.65" length="2.34" shape="521.90,1179.07 522.65,1180.30 522.68,1181.19"/>
    </edge>
    <edge id=":1206735742_5" function="internal">
        <lane id=":1206735742_5_0" index="0" disallow="tram rail_urban rail rail_electric rail_fast ship" speed="3.65" length="2.34" shape="522.68,1181.19 521.99,1181.75 520.56,1181.98"/>
    </edge>
    <edge id=":1208540390_0" function="internal">
        <lane id=":1208540390_0_0" index="0" allow="pedestrian delivery bicycle" speed="3.65" length="4.67" shape="405.78,847.78 406.67,846.65 407.50,846.31 408.27,846.78 408.97,848.04"/>
    </edge>
    <edge id=":1210473765_0" function="internal">
        <lane id=":1210473765_0_0" index="0" allow="pedestrian delivery bicycle" speed="3.93" length="2.16" shape="1248.73,425.99 1248.45,425.49 1248.07,425.16 1247.60,424.99 1247.02,424.99"/>
    </edge>
    <edge id=":1210473765_1" function="internal">
        <lane id=":1210473765_1_0" index="0" allow="pedestrian delivery bicycle" speed="6.13" length="6.48" shape="1246.58,421.82 1248.31,421.82 1249.74,422.31 1250.87,423.32 1251.71,424.82"/>
    </edge>
    <edge id=":1210473765_2" function="internal">
        <lane id=":1210473765_2_0" index="0" disallow="tram rail_urban rail rail_electric rail_fast ship" speed="3.65" length="4.67" shape="1246.58,421.82 1247.88,422.45 1248.39,423.19 1248.10,424.03 1247.02,424.99"/>
    </edge>
    <edge id=":1210473819_0" function="internal">
        <lane id=":1210473819_0_0" index="0" allow="pedestrian delivery bicycle" speed="3.65" length="4.67" shape="1288.37,531.95 1288.00,533.35 1287.37,533.98 1286.48,533.86 1285.34,532.98"/>
    </edge>
    <edge id=":1217161453_0" function="internal">
        <lane id=":1217161453_0_0" index="0" allow="pedestrian delivery bicycle" speed="5.37" length="5.46" shape="442.13,1001.60 440.63,1001.00 439.32,1000.93 438.22,1001.39 437.31,1002.38"/>
    </edge>
    <edge id=":1217161453_1" function="internal">
        <lane id=":1217161453_1_0" index="0" allow="pedestrian delivery bicycle" speed="6.77" length="10.78" shape="442.13,1001.60 439.71,999.81 438.55,997.73 438.65,995.35 440.00,992.67"/>
    </edge>
    <edge id=":1217161453_2" function="internal">
        <lane id=":1217161453_2_0" index="0" allow="pedestrian delivery bicycle" speed="3.65" length="4.67" shape="442.13,1001.60 441.45,1000.32 441.47,999.43 442.20,998.91 443.64,998.77"/>
    </edge>
    <edge id=":1217161453_3" function="internal">