<?xml version="1.0" encoding="UTF-8"?>
<!-- generated on 2020-08-12 19:25:45.598620 by randomTrips.py UNKNOWN
  options: -n grid.net.xml -p 0.01 -e 20
-->
<routes xmlns:xsi="http://www.w3.org/2001/XMLSchema-instance" xsi:noNamespaceSchemaLocation="http://sumo.dlr.de/xsd/routes_file.xsd">
    <trip id="0" depart="0.00" from="F3E3" to="E0D0"/>
    <trip id="1" depart="0.01" from="B7C7" to="H6H5"/>
    <trip id="2" depart="0.02" from="F3G3" to="B3A3"/>
    <trip id="3" depart="0.03" from="A3A4" to="H2H3"/>
    <trip id="4" depart="0.04" from="A2A3" to="H4G4"/>
    <trip id="5" depart="0.05" from="C7B7" to="F0E0"/>
    <trip id="6" depart="0.06" from="E7D7" to="G2F2"/>
    <trip id="7" depart="0.07" from="H3H4" to="A4A3"/>
    <trip id="8" depart="0.08" from="A6A5" to="D5C5"/>
    <trip id="9" depart="0.09" from="B5A5" to="F2F3"/>
    <trip id="10" depart="0.10" from="C3B3" to="B7C7"/>
    <trip id="11" depart="0.11" from="H5G5" to="C3B3"/>
    <trip id="12" depart="0.12" from="H4G4" to="B5A5"/>
    <trip id="13" depart="0.13" from="B7A7" to="G6H6"/>
    <trip id="14" depart="0.14" from="F0F1" to="H2H1"/>
    <trip id="15" depart="0.15" from="A5A4" to="C0C1"/>
    <trip id="16" depart="0.16" from="B1C1" to="F2G2"/>
    <trip id="17" depart="0.17" from="C6B6" to="B3A3"/>
    <trip id="18" depart="0.18" from="E3D3" to="H4G4"/>
    <trip id="19" depart="0.19" from="C6D6" to="D7D6"/>
    <trip id="20" depart="0.20" from="A0A1" to="B6B5"/>
    <trip id="21" depart="0.21" from="C5B5" to="D5C5"/>
    <trip id="22" depart="0.22" from="G1H1" to="C2C3"/>
    <trip id="23" depart="0.23" from="C7B7" to="D0E0"/>
    <trip id="24" depart="0.24" from="H5H4" to="C7D7"/>
    <trip id="25" depart="0.25" from="A1A0" to="F4F3"/>
    <trip id="26" depart="0.26" from="C0C1" to="D3C3"/>
    <trip id="27" depart="0.27" from="F0F1" to="D7C7"/>
    <trip id="28" depart="0.28" from="C0B0" to="C5B5"/>
    <trip id="29" depart="0.29" from="D1C1" to="D3D2"/>
    <trip id="30" depart="0.30" from="H3G3" to="H4H3"/>
    <trip id="31" depart="0.31" from="F2G2" to="E4E3"/>
    <trip id="32" depart="0.32" from="F2F1" to="B5B4"/>
    <trip id="33" depart="0.33" from="G7G6" to="C5B5"/>
    <trip id="34" depart="0.34" from="F6G6" to="G4G3"/>
    <trip id="35" depart="0.35" from="C5C6" to="G2G1"/>
    <trip id="36" depart="0.36" from="G4G3" to="B1A1"/>
    <trip id="37" depart="0.37" from="E1F1" to="C4D4"/>
    <trip id="38" depart="0.38" from="A2A3" to="E1D1"/>
    <trip id="39" depart="0.39" from="H3H2" to="E7F7"/>
    <trip id="40" depart="0.40" from="H5H4" to="C0C1"/>
    <trip id="41" depart="0.41" from="B0A0" to="F3E3"/>
    <trip id="42" depart="0.42" from="H3G3" to="F3F2"/>
    <trip id="43" depart="0.43" from="C4C3" to="B1C1"/>
    <trip id="44" depart="0.44" from="G3G2" to="B7C7"/>
    <trip id="45" depart="0.45" from="C2C3" to="B0B1"/>
    <trip id="46" depart="0.46" from="E3F3" to="G1H1"/>
    <trip id="47" depart="0.47" from="F1F0" to="G5G6"/>
    <trip id="48" depart="0.48" from="E1D1" to="F7E7"/>
    <trip id="49" depart="0.49" from="H7H6" to="H2G2"/>
    <trip id="50" depart="0.50" from="E7F7" to="B5C5"/>
    <trip id="51" depart="0.51" from="C6D6" to="F1G1"/>
    <trip id="52" depart="0.52" from="G6G7" to="G6H6"/>
    <trip id="53" depart="0.53" from="E7E6" to="F5G5"/>
    <trip id="54" depart="0.54" from="B5B6" to="D3E3"/>
    <trip id="55" depart="0.55" from="H4H5" to="F4F3"/>
    <trip id="56" depart="0.56" from="C2C3" to="B1B2"/>
    <trip id="57" depart="0.57" from="H3G3" to="D3C3"/>
    <trip id="58" depart="0.58" from="A6A7" to="H4H3"/>
    <trip id="59" depart="0.59" from="E5E4" to="D2C2"/>
    <trip id="60" depart="0.60" from="H7H6" to="G5H5"/>
    <trip id="61" depart="0.61" from="G5G4" to="G3H3"/>
    <trip id="62" depart="0.62" from="F5G5" to="F4E4"/>
    <trip id="63" depart="0.63" from="G6G7" to="D7E7"/>
    <trip id="64" depart="0.64" from="A4A5" to="E7D7"/>
    <trip id="65" depart="0.65" from="B3B2" to="E5F5"/>
    <trip id="66" depart="0.66" from="F2G2" to="F4F5"/>
    <trip id="67" depart="0.67" from="D6E6" to="H4G4"/>
    <trip id="68" depart="0.68" from="B4A4" to="B1C1"/>
    <trip id="69" depart="0.69" from="H0H1" to="B2B1"/>
    <trip id="70" depart="0.70" from="B7B6" to="G4G5"/>
    <trip id="71" depart="0.71" from="A6A5" to="D4E4"/>
    <trip id="72" depart="0.72" from="B6B5" to="E3E4"/>
    <trip id="73" depart="0.73" from="A3B3" to="H6H7"/>
    <trip id="74" depart="0.74" from="F4E4" to="D2C2"/>
    <trip id="75" depart="0.75" from="E7D7" to="G4G5"/>
    <trip id="76" depart="0.76" from="A2B2" to="H0G0"/>
    <trip id="77" depart="0.77" from="F4G4" to="C1D1"/>
    <trip id="78" depart="0.78" from="D6D5" to="B3B2"/>
    <trip id="79" depart="0.79" from="F6E6" to="C1B1"/>
    <trip id="80" depart="0.80" from="D0D1" to="C6D6"/>
    <trip id="81" depart="0.81" from="A0B0" to="D0D1"/>
    <trip id="82" depart="0.82" from="B4C4" to="D0C0"/>
    <trip id="83" depart="0.83" from="G0F0" to="F7F6"/>
    <trip id="84" depart="0.84" from="F5E5" to="F2G2"/>
    <trip id="85" depart="0.85" from="C4C3" to="A4A5"/>
    <trip id="86" depart="0.86" from="F6E6" to="G6G5"/>
    <trip id="87" depart="0.87" from="G3H3" to="D1D2"/>
    <trip id="88" depart="0.88" from="G2G3" to="G6H6"/>
    <trip id="89" depart="0.89" from="B7A7" to="E3E2"/>
    <trip id="90" depart="0.90" from="E2F2" to="E5E4"/>
    <trip id="91" depart="0.91" from="A0A1" to="G0F0"/>
    <trip id="92" depart="0.92" from="F1F0" to="A5B5"/>
    <trip id="93" depart="0.93" from="E5F5" to="G0G1"/>
    <trip id="94" depart="0.94" from="G0F0" to="G4G3"/>
    <trip id="95" depart="0.95" from="C4D4" to="F0G0"/>
    <trip id="96" depart="0.96" from="B1A1" to="E3F3"/>
    <trip id="97" depart="0.97" from="E6E5" to="A5A4"/>
    <trip id="98" depart="0.98" from="F0F1" to="A1A2"/>
    <trip id="99" depart="0.99" from="D4C4" to="F6G6"/>
    <trip id="100" depart="1.00" from="E7E6" to="E2F2"/>
    <trip id="101" depart="1.01" from="G3G4" to="G2H2"/>
    <trip id="102" depart="1.02" from="H3G3" to="C6D6"/>
    <trip id="103" depart="1.03" from="B1B0" to="H3H4"/>
    <trip id="104" depart="1.04" from="G5F5" to="G1G0"/>
    <trip id="105" depart="1.05" from="F0G0" to="G7G6"/>
    <trip id="106" depart="1.06" from="C2D2" to="F5E5"/>
    <trip id="107" depart="1.07" from="D0C0" to="D5D4"/>
    <trip id="108" depart="1.08" from="G7H7" to="F3G3"/>
    <trip id="109" depart="1.09" from="C6B6" to="B1A1"/>
    <trip id="110" depart="1.10" from="D2E2" to="C4D4"/>
    <trip id="111" depart="1.11" from="G3F3" to="D3E3"/>
    <trip id="112" depart="1.12" from="H0G0" to="H1G1"/>
    <trip id="113" depart="1.13" from="G6F6" to="E4E3"/>
    <trip id="114" depart="1.14" from="G1H1" to="E3F3"/>
    <trip id="115" depart="1.15" from="G0G1" to="A5A4"/>
    <trip id="116" depart="1.16" from="G5G4" to="A6B6"/>
    <trip id="117" depart="1.17" from="E5F5" to="B6A6"/>
    <trip id="118" depart="1.18" from="H4G4" to="A3B3"/>
    <trip id="119" depart="1.19" from="B7B6" to="D4E4"/>
    <trip id="120" depart="1.20" from="G0G1" to="H2H3"/>
    <trip id="121" depart="1.21" from="C3B3" to="B3B4"/>
    <trip id="122" depart="1.22" from="B5C5" to="A5A4"/>
    <trip id="123" depart="1.23" from="G7G6" to="D1E1"/>
    <trip id="124" depart="1.24" from="G5H5" to="G1G2"/>
    <trip id="125" depart="1.25" from="F3E3" to="D3D4"/>
    <trip id="126" depart="1.26" from="E2F2" to="B7C7"/>
    <trip id="127" depart="1.27" from="A5B5" to="D5C5"/>
    <trip id="128" depart="1.28" from="H3G3" to="E6E5"/>
    <trip id="129" depart="1.29" from="C6C5" to="D4E4"/>
    <trip id="130" depart="1.30" from="F5F4" to="C6C7"/>
    <trip id="131" depart="1.31" from="B6B7" to="D5D6"/>
    <trip id="132" depart="1.32" from="E1E0" to="F2E2"/>
    <trip id="133" depart="1.33" from="E0D0" to="C4C3"/>
    <trip id="134" depart="1.34" from="F0E0" to="C0C1"/>
    <trip id="135" depart="1.35" from="E1F1" to="F1F2"/>
    <trip id="136" depart="1.36" from="F5F4" to="E4E5"/>
    <trip id="137" depart="1.37" from="D7C7" to="A5A6"/>
    <trip id="138" depart="1.38" from="C3B3" to="C4C5"/>
    <trip id="139" depart="1.39" from="C7B7" to="A2B2"/>
    <trip id="140" depart="1.40" from="G2G3" to="B4B5"/>
    <trip id="141" depart="1.41" from="H1G1" to="F3F2"/>
    <trip id="142" depart="1.42" from="C6C7" to="E2F2"/>
    <trip id="143" depart="1.43" from="E2E1" to="B0B1"/>
    <trip id="144" depart="1.44" from="E3D3" to="C2B2"/>
    <trip id="145" depart="1.45" from="D3C3" to="H4H3"/>
    <trip id="146" depart="1.46" from="F5G5" to="D2E2"/>
    <trip id="147" depart="1.47" from="H5H4" to="H6H7"/>
    <trip id="148" depart="1.48" from="D5D6" to="H1H2"/>
    <trip id="149" depart="1.49" from="A5A4" to="E5E6"/>
    <trip id="150" depart="1.50" from="A7A6" to="G4G3"/>
    <trip id="151" depart="1.51" from="G3H3" to="G5H5"/>
    <trip id="152" depart="1.52" from="D6E6" to="H6G6"/>
    <trip id="153" depart="1.53" from="E5E4" to="E0F0"/>
    <trip id="154" depart="1.54" from="H4H5" to="A1B1"/>
    <trip id="155" depart="1.55" from="A3B3" to="C1C0"/>
    <trip id="156" depart="1.56" from="E0E1" to="G4G3"/>
    <trip id="157" depart="1.57" from="C6D6" to="D3D4"/>
    <trip id="158" depart="1.58" from="G5H5" to="C2C3"/>
    <trip id="159" depart="1.59" from="C1C2" to="F4E4"/>
    <trip id="160" depart="1.60" from="H6H7" to="H1H0"/>
    <trip id="161" depart="1.61" from="G3F3" to="F6F5"/>
    <trip id="162" depart="1.62" from="G3H3" to="A3A2"/>
    <trip id="163" depart="1.63" from="D4E4" to="D6D5"/>
    <trip id="164" depart="1.64" from="E5E6" to="A4B4"/>
    <trip id="165" depart="1.65" from="C2C3" to="A1A2"/>
    <trip id="166" depart="1.66" from="E3D3" to="B6C6"/>
    <trip id="167" depart="1.67" from="D2D1" to="C3C2"/>
    <trip id="168" depart="1.68" from="E0E1" to="F4G4"/>
    <trip id="169" depart="1.69" from="C4C3" to="F0G0"/>
    <trip id="170" depart="1.70" from="C3D3" to="B4B3"/>
    <trip id="171" depart="1.71" from="C4C5" to="F7G7"/>
    <trip id="172" depart="1.72" from="F7E7" to="C6C7"/>
    <trip id="173" depart="1.73" from="F5F6" to="E3E2"/>
    <trip id="174" depart="1.74" from="A2A1" to="H1H2"/>
    <trip id="175" depart="1.75" from="H2H3" to="G3H3"/>
    <trip id="176" depart="1.76" from="B6B7" to="E4E3"/>
    <trip id="177" depart="1.77" from="D4D3" to="F4F5"/>
    <trip id="178" depart="1.78" from="E6E7" to="H4G4"/>
    <trip id="179" depart="1.79" from="H1H0" to="A5A6"/>
    <trip id="180" depart="1.80" from="B3A3" to="E5F5"/>
    <trip id="181" depart="1.81" from="C0D0" to="G1G0"/>
    <trip id="182" depart="1.82" from="F1F2" to="H2H1"/>
    <trip id="183" depart="1.83" from="D3D4" to="C1C2"/>
    <trip id="184" depart="1.84" from="G6G7" to="A7A6"/>
    <trip id="185" depart="1.85" from="E6D6" to="E0F0"/>
    <trip id="186" depart="1.86" from="B6C6" to="A2A1"/>
    <trip id="187" depart="1.87" from="C6C5" to="G6H6"/>
    <trip id="188" depart="1.88" from="B2B1" to="E3E4"/>
    <trip id="189" depart="1.89" from="H3H4" to="G2G1"/>
    <trip id="190" depart="1.90" from="C0D0" to="H4H5"/>
    <trip id="191" depart="1.91" from="E6F6" to="C6D6"/>
    <trip id="192" depart="1.92" from="E7F7" to="H2H3"/>
    <trip id="193" depart="1.93" from="G4F4" to="H5G5"/>
    <trip id="194" depart="1.94" from="E7D7" to="A2A1"/>
    <trip id="195" depart="1.95" from="B6C6" to="A2B2"/>
    <trip id="196" depart="1.96" from="B3C3" to="H6H7"/>
    <trip id="197" depart="1.97" from="D7D6" to="H0H1"/>
    <trip id="198" depart="1.98" from="C4D4" to="H3H4"/>
    <trip id="199" depart="1.99" from="C0C1" to="C5C6"/>
    <trip id="200" depart="2.00" from="E6E5" to="C3B3"/>
    <trip id="201" depart="2.01" from="H3H4" to="D4C4"/>
    <trip id="202" depart="2.02" from="E0D0" to="H2H1"/>
    <trip id="203" depart="2.03" from="F4F5" to="H2H1"/>
    <trip id="204" depart="2.04" from="D2E2" to="D4D3"/>
    <trip id="205" depart="2.05" from="B5A5" to="C7C6"/>
    <trip id="206" depart="2.06" from="D5E5" to="F2G2"/>
    <trip id="207" depart="2.07" from="A4B4" to="H6H7"/>
    <trip id="208" depart="2.08" from="A2B2" to="D5D4"/>
    <trip id="209" depart="2.09" from="A4B4" to="G2G1"/>
    <trip id="210" depart="2.10" from="A5B5" to="C4C3"/>
    <trip id="211" depart="2.11" from="B5B4" to="D6E6"/>
    <trip id="212" depart="2.12" from="F0F1" to="B2B1"/>
    <trip id="213" depart="2.13" from="G0F0" to="G5F5"/>
    <trip id="214" depart="2.14" from="G7F7" to="G6H6"/>
    <trip id="215" depart="2.15" from="D0D1" to="C6B6"/>
    <trip id="216" depart="2.16" from="G6G7" to="H0H1"/>
    <trip id="217" depart="2.17" from="F1F2" to="A7B7"/>
    <trip id="218" depart="2.18" from="B3B2" to="C6C5"/>
    <trip id="219" depart="2.19" from="C5C4" to="A2B2"/>
    <trip id="220" depart="2.20" from="G3H3" to="F1G1"/>
    <trip id="221" depart="2.21" from="C6B6" to="C2C1"/>
    <trip id="222" depart="2.22" from="D5D6" to="G4H4"/>
    <trip id="223" depart="2.23" from="E2F2" to="C6C5"/>
    <trip id="224" depart="2.24" from="F0E0" to="E1F1"/>
    <trip id="225" depart="2.25" from="G3G2" to="B7B6"/>
    <trip id="226" depart="2.26" from="E1E2" to="A5A6"/>
    <trip id="227" depart="2.27" from="B5A5" to="H1G1"/>
    <trip id="228" depart="2.28" from="C6C5" to="B2C2"/>
    <trip id="229" depart="2.29" from="E4F4" to="D0D1"/>
    <trip id="230" depart="2.30" from="F0G0" to="H4H5"/>
    <trip id="231" depart="2.31" from="A5A6" to="E5D5"/>
    <trip id="232" depart="2.32" from="H4H5" to="H4H3"/>
    <trip id="233" depart="2.33" from="B0C0" to="E3D3"/>
    <trip id="234" depart="2.34" from="F5G5" to="G6F6"/>
    <trip id="235" depart="2.35" from="H4G4" to="G4G3"/>
    <trip id="236" depart="2.36" from="G2G1" to="B3A3"/>
    <trip id="237" depart="2.37" from="G1G0" to="E4E3"/>
    <trip id="238" depart="2.38" from="B6B7" to="E6E7"/>
    <trip id="239" depart="2.39" from="C7C6" to="F0G0"/>
    <trip id="240" depart="2.40" from="D1D0" to="D5D6"/>
    <trip id="241" depart="2.41" from="E1D1" to="D6D5"/>
    <trip id="242" depart="2.42" from="E7D7" to="H1H2"/>
    <trip id="243" depart="2.43" from="G2H2" to="C3D3"/>
    <trip id="244" depart="2.44" from="B6B5" to="C6B6"/>
    <trip id="245" depart="2.45" from="F2E2" to="F6G6"/>
    <trip id="246" depart="2.46" from="H6H5" to="G6G5"/>
    <trip id="247" depart="2.47" from="D2D1" to="G0F0"/>
    <trip id="248" depart="2.48" from="E5D5" to="B2B3"/>
    <trip id="249" depart="2.49" from="E5E6" to="G3H3"/>
    <trip id="250" depart="2.50" from="E0F0" to="C6C7"/>
    <trip id="251" depart="2.51" from="E0D0" to="E2D2"/>
    <trip id="252" depart="2.52" from="H2H3" to="C2C1"/>
    <trip id="253" depart="2.53" from="G2H2" to="G2G1"/>
    <trip id="254" depart="2.54" from="G4H4" to="A4A3"/>
    <trip id="255" depart="2.55" from="D3D2" to="B6A6"/>
    <trip id="256" depart="2.56" from="G2G1" to="E1E0"/>
    <trip id="257" depart="2.57" from="C0D0" to="H1H0"/>
    <trip id="258" depart="2.58" from="E1E2" to="C6D6"/>
    <trip id="259" depart="2.59" from="B0A0" to="H1G1"/>
    <trip id="260" depart="2.60" from="C7B7" to="D0C0"/>
    <trip id="261" depart="2.61" from="H5G5" to="D1C1"/>
    <trip id="262" depart="2.62" from="F1F2" to="C1B1"/>
    <trip id="263" depart="2.63" from="E6E7" to="E1F1"/>
    <trip id="264" depart="2.64" from="F1F2" to="D6C6"/>
    <trip id="265" depart="2.65" from="E7D7" to="A5A6"/>
    <trip id="266" depart="2.66" from="F5F4" to="D6D7"/>
    <trip id="267" depart="2.67" from="H5H4" to="H1H0"/>
    <trip id="268" depart="2.68" from="H3H2" to="H2H1"/>
    <trip id="269" depart="2.69" from="B1B2" to="A5B5"/>
    <trip id="270" depart="2.70" from="A4B4" to="B2B3"/>
    <trip id="271" depart="2.71" from="A1A2" to="B3A3"/>
    <trip id="272" depart="2.72" from="C6B6" to="D6D5"/>
    <trip id="273" depart="2.73" from="E4E5" to="B5C5"/>
    <trip id="274" depart="2.74" from="B5B6" to="E0D0"/>
    <trip id="275" depart="2.75" from="H6H5" to="A2A1"/>
    <trip id="276" depart="2.76" from="G1G2" to="D6D5"/>
    <trip id="277" depart="2.77" from="A6B6" to="G0G1"/>
    <trip id="278" depart="2.78" from="A4A5" to="A4B4"/>
    <trip id="279" depart="2.79" from="F3G3" to="H2H3"/>
    <trip id="280" depart="2.80" from="E2F2" to="B1B2"/>
    <trip id="281" depart="2.81" from="C4C3" to="H6H7"/>
    <trip id="282" depart="2.82" from="A3A2" to="E0D0"/>
    <trip id="283" depart="2.83" from="E6E7" to="H6H7"/>
    <trip id="284" depart="2.84" from="B2B3" to="C1D1"/>
    <trip id="285" depart="2.85" from="G3G4" to="B2B3"/>
    <trip id="286" depart="2.86" from="H3H2" to="B5C5"/>
    <trip id="287" depart="2.87" from="E3E4" to="E3D3"/>
    <trip id="288" depart="2.88" from="F3E3" to="H2H1"/>
    <trip id="289" depart="2.89" from="A5A4" to="C2D2"/>
    <trip id="290" depart="2.90" from="C6B6" to="A6B6"/>
    <trip id="291" depart="2.91" from="C2C3" to="A1B1"/>
    <trip id="292" depart="2.92" from="B0A0" to="F3G3"/>
    <trip id="293" depart="2.93" from="C2D2" to="G2H2"/>
    <trip id="294" depart="2.94" from="B5B4" to="H0H1"/>
    <trip id="295" depart="2.95" from="G3H3" to="H6G6"/>
    <trip id="296" depart="2.96" from="D6D7" to="C7D7"/>
    <trip id="297" depart="2.97" from="C5D5" to="A2A3"/>
    <trip id="298" depart="2.98" from="D3D4" to="D2E2"/>
    <trip id="299" depart="2.99" from="D5D4" to="E7F7"/>
    <trip id="300" depart="3.00" from="A0A1" to="C3C2"/>
    <trip id="301" depart="3.01" from="C3C2" to="F5E5"/>
    <trip id="302" depart="3.02" from="C1D1" to="E4D4"/>
    <trip id="303" depart="3.03" from="E4F4" to="B4B5"/>
    <trip id="304" depart="3.04" from="E2E3" to="A2A3"/>
    <trip id="305" depart="3.05" from="C0B0" to="G6G5"/>
    <trip id="306" depart="3.06" from="E0E1" to="H7G7"/>
    <trip id="307" depart="3.07" from="A6A5" to="E1E0"/>
    <trip id="308" depart="3.08" from="B0A0" to="A7B7"/>
    <trip id="309" depart="3.09" from="F1G1" to="F7E7"/>
    <trip id="310" depart="3.10" from="E4E5" to="E0D0"/>
    <trip id="311" depart="3.11" from="C4C3" to="F5F4"/>
    <trip id="312" depart="3.12" from="B6A6" to="C1C2"/>
    <trip id="313" depart="3.13" from="D7C7" to="G3G4"/>
    <trip id="314" depart="3.14" from="E1E0" to="C5B5"/>
    <trip id="315" depart="3.15" from="C1D1" to="E5D5"/>
    <trip id="316" depart="3.16" from="H4G4" to="H5G5"/>
    <trip id="317" depart="3.17" from="B7B6" to="A6A5"/>
    <trip id="318" depart="3.18" from="E2E3" to="D2E2"/>
    <trip id="319" depart="3.19" from="H7G7" to="G7H7"/>
    <trip id="320" depart="3.20" from="C7B7" to="C0D0"/>
    <trip id="321" depart="3.21" from="D1C1" to="B4A4"/>
    <trip id="322" depart="3.22" from="H6H5" to="D3C3"/>
    <trip id="323" depart="3.23" from="B2A2" to="A0A1"/>
    <trip id="324" depart="3.24" from="G7H7" to="F3E3"/>
    <trip id="325" depart="3.25" from="E4E5" to="H7G7"/>
    <trip id="326" depart="3.26" from="B0C0" to="A1B1"/>
    <trip id="327" depart="3.27" from="B7B6" to="H1H0"/>
    <trip id="328" depart="3.28" from="E1D1" to="H7G7"/>
    <trip id="329" depart="3.29" from="F6F7" to="E0E1"/>
    <trip id="330" depart="3.30" from="G3F3" to="F2G2"/>
    <trip id="331" depart="3.31" from="G2H2" to="F6F5"/>
    <trip id="332" depart="3.32" from="C1B1" to="F0E0"/>
    <trip id="333" depart="3.33" from="B7B6" to="G3H3"/>
    <trip id="334" depart="3.34" from="B4A4" to="A2A3"/>
    <trip id="335" depart="3.35" from="D4E4" to="A5A4"/>
    <trip id="336" depart="3.36" from="G1H1" to="D7C7"/>
    <trip id="337" depart="3.37" from="C1D1" to="D2C2"/>
    <trip id="338" depart="3.38" from="H5G5" to="C5D5"/>
    <trip id="339" depart="3.39" from="F6F5" to="G6H6"/>
    <trip id="340" depart="3.40" from="D0C0" to="B3C3"/>
    <trip id="341" depart="3.41" from="F5E5" to="A1A2"/>
    <trip id="342" depart="3.42" from="D2D3" to="E6D6"/>
    <trip id="343" depart="3.43" from="B4C4" to="B1B0"/>
    <trip id="344" depart="3.44" from="C1B1" to="G5G4"/>
    <trip id="345" depart="3.45" from="D5D4" to="F4F5"/>
    <trip id="346" depart="3.46" from="E4D4" to="F1E1"/>
    <trip id="347" depart="3.47" from="F0F1" to="C3D3"/>
    <trip id="348" depart="3.48" from="E2F2" to="C7B7"/>
    <trip id="349" depart="3.49" from="E4E5" to="H4H5"/>
    <trip id="350" depart="3.50" from="B2C2" to="E1E0"/>
    <trip id="351" depart="3.51" from="D4E4" to="C2C3"/>
    <trip id="352" depart="3.52" from="H0G0" to="D4D5"/>
    <trip id="353" depart="3.53" from="D4E4" to="C4C3"/>
    <trip id="354" depart="3.54" from="E4E3" to="D3D2"/>
    <trip id="355" depart="3.55" from="G3F3" to="D3D2"/>
    <trip id="356" depart="3.56" from="E6F6" to="A7B7"/>
    <trip id="357" depart="3.57" from="B4B5" to="A7B7"/>
    <trip id="358" depart="3.58" from="A7B7" to="C2D2"/>
    <trip id="359" depart="3.59" from="A6A5" to="F2F1"/>
    <trip id="360" depart="3.60" from="B1B2" to="C7B7"/>
    <trip id="361" depart="3.61" from="F6F7" to="C5D5"/>
    <trip id="362" depart="3.62" from="E3F3" to="D6D5"/>
    <trip id="363" depart="3.63" from="B3B4" to="D1E1"/>
    <trip id="364" depart="3.64" from="B1A1" to="A7B7"/>
    <trip id="365" depart="3.65" from="F2G2" to="H2G2"/>
    <trip id="366" depart="3.66" from="D2E2" to="D3D4"/>
    <trip id="367" depart="3.67" from="H5G5" to="A1A0"/>
    <trip id="368" depart="3.68" from="C4C5" to="B1C1"/>
    <trip id="369" depart="3.69" from="D4D3" to="B1B0"/>
    <trip id="370" depart="3.70" from="G3H3" to="D2C2"/>
    <trip id="371" depart="3.71" from="F2F3" to="C5C4"/>
    <trip id="372" depart="3.72" from="A2A3" to="G4G3"/>
    <trip id="373" depart="3.73" from="E3D3" to="C6C7"/>
    <trip id="374" depart="3.74" from="D4D3" to="B5C5"/>
    <trip id="375" depart="3.75" from="F6E6" to="C1C2"/>
    <trip id="376" depart="3.76" from="A6A7" to="E7D7"/>
    <trip id="377" depart="3.77" from="B5A5" to="B5B4"/>
    <trip id="378" depart="3.78" from="A7B7" to="F5G5"/>
    <trip id="379" depart="3.79" from="C4B4" to="C1C0"/>
    <trip id="380" depart="3.80" from="D2D3" to="B2A2"/>
    <trip id="381" depart="3.81" from="F0G0" to="H4H3"/>
    <trip id="382" depart="3.82" from="G4H4" to="E7F7"/>
    <trip id="383" depart="3.83" from="E6F6" to="E1F1"/>
    <trip id="384" depart="3.84" from="B3A3" to="C0D0"/>
    <trip id="385" depart="3.85" from="D6C6" to="F7E7"/>
    <trip id="386" depart="3.86" from="D4C4" to="E5F5"/>
    <trip id="387" depart="3.87" from="F0F1" to="G0H0"/>
    <trip id="388" depart="3.88" from="G6G7" to="A3B3"/>
    <trip id="389" depart="3.89" from="G2G3" to="B7C7"/>
    <trip id="390" depart="3.90" from="A1A2" to="G5G4"/>
    <trip id="391" depart="3.91" from="C6B6" to="G0F0"/>
    <trip id="392" depart="3.92" from="B0B1" to="H1H2"/>
    <trip id="393" depart="3.93" from="A1A0" to="F5G5"/>
    <trip id="394" depart="3.94" from="B7C7" to="F3F4"/>
    <trip id="395" depart="3.95" from="B4B3" to="F1E1"/>
    <trip id="396" depart="3.96" from="G5H5" to="E2E3"/>
    <trip id="397" depart="3.97" from="A6B6" to="B6B5"/>
    <trip id="398" depart="3.98" from="E6D6" to="F2F1"/>
    <trip id="399" depart="3.99" from="C7B7" to="B1C1"/>
    <trip id="400" depart="4.00" from="D2D3" to="A3B3"/>
    <trip id="401" depart="4.01" from="G2G3" to="D0D1"/>
    <trip id="402" depart="4.02" from="C6B6" to="C3B3"/>
    <trip id="403" depart="4.03" from="B5B6" to="A4A5"/>
    <trip id="404" depart="4.04" from="A6A5" to="C5C4"/>
    <trip id="405" depart="4.05" from="C3C4" to="G2F2"/>
    <trip id="406" depart="4.06" from="H0G0" to="H0H1"/>
    <trip id="407" depart="4.07" from="B5B6" to="D5E5"/>
    <trip id="408" depart="4.08" from="H3H2" to="C1B1"/>
    <trip id="409" depart="4.09" from="E6F6" to="C5C6"/>
    <trip id="410" depart="4.10" from="D4E4" to="B5A5"/>
    <trip id="411" depart="4.11" from="G1G2" to="E7E6"/>
    <trip id="412" depart="4.12" from="C6D6" to="B6B7"/>
    <trip id="413" depart="4.13" from="C5B5" to="H3G3"/>
    <trip id="414" depart="4.14" from="C1C0" to="F5E5"/>
    <trip id="415" depart="4.15" from="E5D5" to="G0F0"/>
    <trip id="416" depart="4.16" from="F5G5" to="F7G7"/>
    <trip id="417" depart="4.17" from="E6E7" to="C2B2"/>
    <trip id="418" depart="4.18" from="E6D6" to="B7A7"/>
    <trip id="419" depart="4.19" from="B0B1" to="B3A3"/>
    <trip id="420" depart="4.20" from="C1C2" to="A0A1"/>
    <trip id="421" depart="4.21" from="F5E5" to="D2C2"/>
    <trip id="422" depart="4.22" from="B4C4" to="D5E5"/>
    <trip id="423" depart="4.23" from="E1F1" to="D2C2"/>
    <trip id="424" depart="4.24" from="H4H5" to="B5A5"/>
    <trip id="425" depart="4.25" from="E6D6" to="D0E0"/>
    <trip id="426" depart="4.26" from="A5B5" to="A6B6"/>
    <trip id="427" depart="4.27" from="G4G5" to="C5C6"/>
    <trip id="428" depart="4.28" from="C4C5" to="A4A3"/>
    <trip id="429" depart="4.29" from="G5G4" to="G6G7"/>
    <trip id="430" depart="4.30" from="B1B0" to="C5C4"/>
    <trip id="431" depart="4.31" from="F3F4" to="G7H7"/>
    <trip id="432" depart="4.32" from="B6A6" to="B5C5"/>
    <trip id="433" depart="4.33" from="C7C6" to="C5D5"/>
    <trip id="434" depart="4.34" from="E5F5" to="G6F6"/>
    <trip id="435" depart="4.35" from="E2E3" to="F3F2"/>
    <trip id="436" depart="4.36" from="F1E1" to="C6C7"/>
    <trip id="437" depart="4.37" from="D0E0" to="G2H2"/>
    <trip id="438" depart="4.38" from="B7C7" to="C7D7"/>
    <trip id="439" depart="4.39" from="D3D4" to="D6D5"/>
    <trip id="440" depart="4.40" from="D3C3" to="G2H2"/>
    <trip id="441" depart="4.41" from="C6D6" to="D4D5"/>
    <trip id="442" depart="4.42" from="H1H2" to="B6B7"/>
    <trip id="443" depart="4.43" from="G3H3" to="A4A5"/>
    <trip id="444" depart="4.44" from="A2A1" to="A0A1"/>
    <trip id="445" depart="4.45" from="D1D0" to="B2C2"/>
    <trip id="446" depart="4.46" from="H1H2" to="F5G5"/>
    <trip id="447" depart="4.47" from="G0G1" to="B5A5"/>
    <trip id="448" depart="4.48" from="G4G5" to="C3C4"/>
    <trip id="449" depart="4.49" from="B7A7" to="G1G0"/>
    <trip id="450" depart="4.50" from="F3G3" to="G7F7"/>
    <trip id="451" depart="4.51" from="E2F2" to="F1F2"/>
    <trip id="452" depart="4.52" from="C6C5" to="G7G6"/>
    <trip id="453" depart="4.53" from="F2E2" to="A5B5"/>
    <trip id="454" depart="4.54" from="G2F2" to="D2E2"/>
    <trip id="455" depart="4.55" from="D0D1" to="A1A2"/>
    <trip id="456" depart="4.56" from="B1C1" to="F7E7"/>
    <trip id="457" depart="4.57" from="D6E6" to="F1G1"/>
    <trip id="458" depart="4.58" from="B1B0" to="H6H5"/>
    <trip id="459" depart="4.59" from="G2F2" to="C2C3"/>
    <trip id="460" depart="4.60" from="F3E3" to="G2G3"/>
    <trip id="461" depart="4.61" from="H4G4" to="H4G4"/>
    <trip id="462" depart="4.62" from="F0F1" to="D6D5"/>
    <trip id="463" depart="4.63" from="B7B6" to="C6B6"/>
    <trip id="464" depart="4.64" from="F7F6" to="H6H5"/>
    <trip id="465" depart="4.65" from="A6A5" to="E0F0"/>
    <trip id="466" depart="4.66" from="C2C3" to="F2E2"/>
    <trip id="467" depart="4.67" from="C7D7" to="C3D3"/>
    <trip id="468" depart="4.68" from="D3D2" to="E3E4"/>
    <trip id="469" depart="4.69" from="G3G2" to="E1F1"/>
    <trip id="470" depart="4.70" from="G0F0" to="H6G6"/>
    <trip id="471" depart="4.71" from="B6A6" to="E1F1"/>
    <trip id="472" depart="4.72" from="H6H7" to="E6D6"/>
    <trip id="473" depart="4.73" from="A2B2" to="A5A4"/>
    <trip id="474" depart="4.74" from="A5B5" to="A7B7"/>
    <trip id="475" depart="4.75" from="D5C5" to="F7E7"/>
    <trip id="476" depart="4.76" from="H0G0" to="A6B6"/>
    <trip id="477" depart="4.77" from="G2G3" to="F4F3"/>
    <trip id="478" depart="4.78" from="F7G7" to="C1C0"/>
    <trip id="479" depart="4.79" from="D4D3" to="H5G5"/>
    <trip id="480" depart="4.80" from="B1B0" to="G3H3"/>
    <trip id="481" depart="4.81" from="C6C5" to="H0H1"/>
    <trip id="482" depart="4.82" from="C2D2" to="G5H5"/>
    <trip id="483" depart="4.83" from="A5B5" to="A7B7"/>
    <trip id="484" depart="4.84" from="D3D4" to="H4H3"/>
    <trip id="485" depart="4.85" from="F2F3" to="F4E4"/>
    <trip id="486" depart="4.86" from="F1E1" to="E1D1"/>
    <trip id="487" depart="4.87" from="D3D2" to="D6E6"/>
    <trip id="488" depart="4.88" from="C2C1" to="H3H4"/>
    <trip id="489" depart="4.89" from="D7C7" to="G5G6"/>
    <trip id="490" depart="4.90" from="C5C6" to="C1C2"/>
    <trip id="491" depart="4.91" from="E6E5" to="E6E7"/>
    <trip id="492" depart="4.92" from="B0A0" to="C1B1"/>
    <trip id="493" depart="4.93" from="G6H6" to="A5B5"/>
    <trip id="494" depart="4.94" from="D7E7" to="C4C5"/>
    <trip id="495" depart="4.95" from="G1F1" to="G6G7"/>
    <trip id="496" depart="4.96" from="C7C6" to="B2C2"/>
    <trip id="497" depart="4.97" from="G7H7" to="E3E2"/>
    <trip id="498" depart="4.98" from="B1B0" to="G2H2"/>
    <trip id="499" depart="4.99" from="C1C0" to="A6A7"/>
    <trip id="500" depart="5.00" from="D3D4" to="D2D3"/>
    <trip id="501" depart="5.01" from="A6B6" to="F3E3"/>
    <trip id="502" depart="5.02" from="B6C6" to="H6H5"/>
    <trip id="503" depart="5.03" from="C7D7" to="B2B3"/>
    <trip id="504" depart="5.04" from="D0C0" to="A5A6"/>
    <trip id="505" depart="5.05" from="F1F0" to="G3F3"/>
    <trip id="506" depart="5.06" from="F4F3" to="A6B6"/>
    <trip id="507" depart="5.07" from="D7C7" to="E6E5"/>
    <trip id="508" depart="5.08" from="B2C2" to="B0C0"/>
    <trip id="509" depart="5.09" from="C2B2" to="C3B3"/>
    <trip id="510" depart="5.10" from="A5B5" to="E1F1"/>
    <trip id="511" depart="5.11" from="D3E3" to="E1E0"/>
    <trip id="512" depart="5.12" from="B3A3" to="G1G2"/>
    <trip id="513" depart="5.13" from="C2C3" to="E6D6"/>
    <trip id="514" depart="5.14" from="C6D6" to="F5F4"/>
    <trip id="515" depart="5.15" from="E5E4" to="B2C2"/>
    <trip id="516" depart="5.16" from="F4E4" to="D6E6"/>
    <trip id="517" depart="5.17" from="G3F3" to="C3B3"/>
    <trip id="518" depart="5.18" from="D6E6" to="G2G1"/>
    <trip id="519" depart="5.19" from="A7B7" to="A5B5"/>
    <trip id="520" depart="5.20" from="H4H5" to="D6E6"/>
    <trip id="521" depart="5.21" from="G1F1" to="B6B5"/>
    <trip id="522" depart="5.22" from="D5D6" to="G3H3"/>