<?xml version="1.0" encoding="UTF-8"?>

<!-- generated on Tue Nov 12 13:39:56 2019 by Eclipse SUMO duarouter Version 1.3.1
<configuration xmlns:xsi="http://www.w3.org/2001/XMLSchema-instance" xsi:noNamespaceSchemaLocation="http://sumo.dlr.de/xsd/duarouterConfiguration.xsd">

    <input>
        <net-file value="/home/shuto/Sumo/2019-11-12-13-39-53/osm.net.xml"/>
        <route-files value="/home/shuto/Sumo/2019-11-12-13-39-53/osm.passenger.trips.xml"/>
    </input>

    <output>
        <output-file value="/home/shuto/Sumo/2019-11-12-13-39-53/osm.passenger.trips.xml.tmp"/>
        <write-trips value="true"/>
    </output>

    <time>
        <begin value="0"/>
        <end value="3600.0"/>
    </time>

    <report>
        <no-warnings value="true"/>
        <ignore-errors value="true"/>
        <no-step-log value="true"/>
    </report>

</configuration>
-->

<routes xmlns:xsi="http://www.w3.org/2001/XMLSchema-instance" xsi:noNamespaceSchemaLocation="http://sumo.dlr.de/xsd/routes_file.xsd">
    <vType id="veh_passenger" vClass="passenger"/>
    <trip id="veh0" type="veh_passenger" depart="0.00" departLane="best" from="129487393" to="-118161787#4"/>
    <trip id="veh1" type="veh_passenger" depart="2.46" departLane="best" from="-129488742#1" to="-129488286"/>
    <trip id="veh2" type="veh_passenger" depart="4.92" departLane="best" from="129488474" to="129487600"/>
    <trip id="veh3" type="veh_passenger" depart="7.38" departLane="best" from="129489568" to="-129487085#11"/>
    <trip id="veh4" type="veh_passenger" depart="9.84" departLane="best" departSpeed="max" from="-129489850" to="-118161787#4"/>
    <trip id="veh5" type="veh_passenger" depart="12.30" departLane="best" from="-129487973" to="118156096"/>
    <trip id="veh6" type="veh_passenger" depart="14.76" departLane="best" departSpeed="max" from="-118161787#6" to="-129487920"/>
    <trip id="veh7" type="veh_passenger" depart="17.23" departLane="best" from="129487581" to="118161787#6"/>
    <trip id="veh8" type="veh_passenger" depart="19.69" departLane="best" from="-129487973" to="129486976"/>
    <trip id="veh9" type="veh_passenger" depart="22.15" departLane="best" from="129488998" to="-118161787#4"/>
    <trip id="veh10" type="veh_passenger" depart="24.61" departLane="best" from="-129489348" to="-129487704"/>
    <trip id="veh11" type="veh_passenger" depart="27.07" departLane="best" departSpeed="max" from="129490032#0" to="-129489306"/>
    <trip id="veh12" type="veh_passenger" depart="29.53" departLane="best" from="-129487085#11" to="-129487085#4"/>
    <trip id="veh13" type="veh_passenger" depart="31.99" departLane="best" from="129489368" to="129487085#11"/>
    <trip id="veh14" type="veh_passenger" depart="34.45" departLane="best" from="129488998" to="129488044"/>
    <trip id="veh15" type="veh_passenger" depart="36.91" departLane="best" from="129486840" to="129490032#2"/>
    <trip id="veh16" type="veh_passenger" depart="39.37" departLane="best" from="-129489546" to="118175630"/>
    <trip id="veh17" type="veh_passenger" depart="41.83" departLane="best" departSpeed="max" from="129489306" to="129487085#13"/>
    <trip id="veh18" type="veh_passenger" depart="44.29" departLane="best" from="129489488" to="129486859"/>
    <trip id="veh19" type="veh_passenger" depart="46.75" departLane="best" from="129487973" to="-129486859"/>
    <trip id="veh20" type="veh_passenger" depart="49.21" departLane="best" from="-129488286" to="-129488754"/>
    <trip id="veh21" type="veh_passenger" depart="51.68" departLane="best" from="-129486976" to="-129488387"/>
    <trip id="veh22" type="veh_passenger" depart="54.14" departLane="best" departSpeed="max" from="-129487085#13" to="-129488735"/>
    <trip id="veh23" type="veh_passenger" depart="56.60" departLane="best" from="129487327" to="-129489488"/>
    <trip id="veh24" type="veh_passenger" depart="59.06" departLane="best" departSpeed="max" from="-129489473" to="-129487944"/>
    <trip id="veh25" type="veh_passenger" depart="61.52" departLane="best" from="-129488587" to="129489939"/>
    <trip id="veh26" type="veh_passenger" depart="63.98" departLane="best" from="129487581" to="129487085#13"/>
    <trip id="veh27" type="veh_passenger" depart="66.44" departLane="best" from="-129487646" to="129488044"/>
    <trip id="veh28" type="veh_passenger" depart="68.90" departLane="best" from="-129487590" to="-129489547"/>
    <trip id="veh29" type="veh_passenger" depart="71.36" departLane="best" from="129490032#1" to="129487085#7"/>
    <trip id="veh30" type="veh_passenger" depart="73.82" departLane="best" from="129487045" to="129487651"/>
    <trip id="veh31" type="veh_passenger" depart="76.28" departLane="best" departSpeed="max" from="129489306" to="129488587"/>
    <trip id="veh32" type="veh_passenger" depart="78.74" departLane="best" from="-129488286" to="-118161787#5"/>
    <trip id="veh33" type="veh_passenger" depart="81.20" departLane="best" departSpeed="max" from="-129489015" to="-129488715"/>
    <trip id="veh34" type="veh_passenger" depart="83.66" departLane="best" from="-129487873" to="129489982"/>
    <trip id="veh35" type="veh_passenger" depart="86.13" departLane="best" departSpeed="max" from="129489547" to="-129489084"/>
    <trip id="veh36" type="veh_passenger" depart="88.59" departLane="best" from="129487600" to="-129489564"/>
    <trip id="veh37" type="veh_passenger" depart="91.05" departLane="best" from="129489939" to="-129490010"/>
    <trip id="veh38" type="veh_passenger" depart="93.51" departLane="best" from="-129488587" to="-129488493"/>
    <trip id="veh39" type="veh_passenger" depart="95.97" departLane="best" departSpeed="max" from="129487085#0" to="-129488715"/>
    <trip id="veh40" type="veh_passenger" depart="98.43" departLane="best" from="129487085#12" to="129489568"/>
    <trip id="veh41" type="veh_passenger" depart="100.89" departLane="best" from="-129489695" to="-129488151"/>
    <trip id="veh42" type="veh_passenger" depart="103.35" departLane="best" from="129490032#2" to="118161787#0"/>
    <trip id="veh43" type="veh_passenger" depart="105.81" departLane="best" from="-129487085#11" to="-129486871"/>
    <trip id="veh44" type="veh_passenger" depart="108.27" departLane="best" departSpeed="max" from="-129487085#13" to="129487085#3"/>
    <trip id="veh45" type="veh_passenger" depart="110.73" departLane="best" from="129488823" to="-129489966"/>
    <trip id="veh46" type="veh_passenger" depart="113.19" departLane="best" departSpeed="max" from="-129486858" to="-129489547"/>
    <trip id="veh47" type="veh_passenger" depart="115.65" departLane="best" from="129490032#2" to="118161787#6"/>
    <trip id="veh48" type="veh_passenger" depart="118.12" departLane="best" departSpeed="max" from="129490032#0" to="129489442"/>
    <trip id="veh49" type="veh_passenger" depart="120.58" departLane="best" from="-118161787#5" to="129487874"/>
    <trip id="veh50" type="veh_passenger" depart="123.04" departLane="best" departSpeed="max" from="129487735" to="118161787#6"/>
    <trip id="veh51" type="veh_passenger" depart="125.50" departLane="best" from="-129488587" to="129487085#7"/>
    <trip id="veh52" type="veh_passenger" depart="127.96" departLane="best" departSpeed="max" from="-129487085#13" to="-129489966"/>
    <trip id="veh53" type="veh_passenger" depart="130.42" departLane="best" from="-129490032#1" to="129489982"/>
    <trip id="veh54" type="veh_passenger" depart="132.88" departLane="best" departSpeed="max" from="129489547" to="-129488715"/>
    <trip id="veh55" type="veh_passenger" depart="135.34" departLane="best" departSpeed="max" from="118161787#0" to="-129487786"/>
    <trip id="veh56" type="veh_passenger" depart="137.80" departLane="best" from="129489802" to="129489473"/>
    <trip id="veh57" type="veh_passenger" depart="140.26" departLane="best" from="-129488934" to="129487085#7"/>
    <trip id="veh58" type="veh_passenger" depart="142.72" departLane="best" from="129487085#9" to="-129487704"/>
    <trip id="veh59" type="veh_passenger" depart="145.18" departLane="best" departSpeed="max" from="129488715" to="118161787#6"/>
    <trip id="veh60" type="veh_passenger" depart="147.64" departLane="best" from="129488742#0" to="118161787#6"/>
    <trip id="veh61" type="veh_passenger" depart="150.10" departLane="best" from="-118161787#4" to="-129489227"/>
    <trip id="veh62" type="veh_passenger" depart="152.57" departLane="best" departSpeed="max" from="-118161787#6" to="129489850"/>
    <trip id="veh63" type="veh_passenger" depart="155.03" departLane="best" departSpeed="max" from="129489547" to="129489015"/>
    <trip id="veh64" type="veh_passenger" depart="157.49" departLane="best" departSpeed="max" from="-129489015" to="-129486976"/>
    <trip id="veh65" type="veh_passenger" depart="159.95" departLane="best" departSpeed="max" from="129489547" to="129489982"/>
    <trip id="veh66" type="veh_passenger" depart="162.41" departLane="best" from="-129487085#1" to="-129490032#0"/>
    <trip id="veh67" type="veh_passenger" depart="164.87" departLane="best" from="-129486871" to="129488477"/>
    <trip id="veh68" type="veh_passenger" depart="167.33" departLane="best" departSpeed="max" from="129488715" to="-129487393"/>
    <trip id="veh69" type="veh_passenger" depart="169.79" departLane="best" departSpeed="max" from="-129490032#2" to="118161787#6"/>
    <trip id="veh70" type="veh_passenger" depart="172.25" departLane="best" from="-129488587" to="129489473"/>
    <trip id="veh71" type="veh_passenger" depart="174.71" departLane="best" departSpeed="max" from="-129489850" to="-129487944"/>
    <trip id="veh72" type="veh_passenger" depart="177.17" departLane="best" from="129486859" to="129488044"/>
    <trip id="veh73" type="veh_passenger" depart="179.63" departLane="best" departSpeed="max" from="-129487787" to="-129488998"/>
    <trip id="veh74" type="veh_passenger" depart="182.09" departLane="best" from="129490032#2" to="129487087"/>
    <trip id="veh75" type="veh_passenger" depart="184.56" departLane="best" departSpeed="max" from="-129489982" to="118161787#5"/>
    <trip id="veh76" type="veh_passenger" depart="187.02" departLane="best" from="-129488286" to="-129488151"/>
    <trip id="veh77" type="veh_passenger" depart="189.48" departLane="best" from="-129486871" to="129487085#4"/>
    <trip id="veh78" type="veh_passenger" depart="191.94" departLane="best" from="-129488286" to="129489665"/>
    <trip id="veh79" type="veh_passenger" depart="194.40" departLane="best" from="129489459" to="-129487085#0"/>
    <trip id="veh80" type="veh_passenger" depart="196.86" departLane="best" from="-129488387" to="129487410"/>
    <trip id="veh81" type="veh_passenger" depart="199.32" departLane="best" from="-129487874" to="-129487403"/>
    <trip id="veh82" type="veh_passenger" depart="201.78" departLane="best" departSpeed="max" from="129489978" to="129486858"/>
    <trip id="veh83" type="veh_passenger" depart="204.24" departLane="best" departSpeed="max" from="-129490032#2" to="129488742#0"/>
    <trip id="veh84" type="veh_passenger" depart="206.70" departLane="best" from="129488998" to="-129487874"/>
    <trip id="veh85" type="veh_passenger" depart="209.16" departLane="best" departSpeed="max" from="-129487085#13" to="-129489966"/>
    <trip id="veh86" type="veh_passenger" depart="211.62" departLane="best" departSpeed="max" from="-129489850" to="-129490032#0"/>
    <trip id="veh87" type="veh_passenger" depart="214.08" departLane="best" from="129488391" to="129487590"/>
    <trip id="veh88" type="veh_passenger" depart="216.54" departLane="best" departSpeed="max" from="129490032#0" to="-129487085#4"/>
    <trip id="veh89" type="veh_passenger" depart="219.01" departLane="best" from="-129489733" to="-129489306"/>
    <trip id="veh90" type="veh_passenger" depart="221.47" departLane="best" from="129489488" to="-129488493"/>
    <trip id="veh91" type="veh_passenger" depart="223.93" departLane="best" departSpeed="max" from="-129487787" to="-129489978"/>
    <trip id="veh92" type="veh_passenger" depart="226.39" departLane="best" departSpeed="max" from="-129489850" to="-129488735"/>
    <trip id="veh93" type="veh_passenger" depart="228.85" departLane="best" from="-129488477" to="129489850"/>
    <trip id="veh94" type="veh_passenger" depart="231.31" departLane="best" departSpeed="max" from="-129489982" to="129489442"/>
    <trip id="veh95" type="veh_passenger" depart="233.77" departLane="best" from="129486909" to="-129486896"/>
    <trip id="veh96" type="veh_passenger" depart="236.23" departLane="best" from="129490032#2" to="129489152"/>
    <trip id="veh97" type="veh_passenger" depart="238.69" departLane="best" departSpeed="max" from="129490032#0" to="129489850"/>
    <trip id="veh98" type="veh_passenger" depart="241.15" departLane="best" departSpeed="max" from="-129490032#2" to="-129487973"/>
    <trip id="veh99" type="veh_passenger" depart="243.61" departLane="best" from="-129489695" to="-129486976"/>
    <trip id="veh100" type="veh_passenger" depart="246.07" departLane="best" from="-129489546" to="129490032#2"/>
    <trip id="veh101" type="veh_passenger" depart="248.53" departLane="best" from="-129488587" to="129488742#0"/>
    <trip id="veh102" type="veh_passenger" depart="250.99" departLane="best" from="-129490032#1" to="-129489966"/>
    <trip id="veh103" type="veh_passenger" depart="253.46" departLane="best" departSpeed="max" from="129490032#0" to="129490032#2"/>
    <trip id="veh104" type="veh_passenger" depart="255.92" departLane="best" from="129487045" to="129487841"/>
    <trip id="veh105" type="veh_passenger" depart="258.38" departLane="best" from="-129487403" to="-129488823"/>
    <trip id="veh106" type="veh_passenger" depart="260.84" departLane="best" departSpeed="max" from="129490032#0" to="129486859"/>
    <trip id="veh107" type="veh_passenger" depart="263.30" departLane="best" from="129486871" to="129488388"/>
    <trip id="veh108" type="veh_passenger" depart="265.76" departLane="best" departSpeed="max" from="-129486858" to="129486896"/>
    <trip id="veh109" type="veh_passenger" depart="268.22" departLane="best" departSpeed="max" from="118161787#0" to="129489348"/>
    <trip id="veh110" type="veh_passenger" depart="270.68" departLane="best" from="-129486976" to="-129487841"/>
    <trip id="veh111" type="veh_passenger" depart="273.14" departLane="best" from="129487085#5" to="129487590"/>
    <trip id="veh112" type="veh_passenger" depart="275.60" departLane="best" from="-129488307" to="-129487104"/>
    <trip id="veh113" type="veh_passenger" depart="278.06" departLane="best" from="129489564" to="-129488493"/>
    <trip id="veh114" type="veh_passenger" depart="280.52" departLane="best" from="129487085#4" to="129487085#13"/>
    <trip id="veh115" type="veh_passenger" depart="282.98" departLane="best" departSpeed="max" from="-129489850" to="129486896"/>
    <trip id="veh116" type="veh_passenger" depart="285.45" departLane="best" departSpeed="max" from="118161787#0" to="129489939"/>
    <trip id="veh117" type="veh_passenger" depart="287.91" departLane="best" departSpeed="max" from="129487735" to="-129488833"/>
    <trip id="veh118" type="veh_passenger" depart="290.37" departLane="best" departSpeed="max" from="-129489015" to="129488391"/>
    <trip id="veh119" type="veh_passenger" depart="292.83" departLane="best" from="-129486896" to="-129490010"/>
    <trip id="veh120" type="veh_passenger" depart="295.29" departLane="best" from="129490032#2" to="129490032#2"/>
    <trip id="veh121" type="veh_passenger" depart="297.75" departLane="best" from="-129486896" to="-129487973"/>
    <trip id="veh122" type="veh_passenger" depart="300.21" departLane="best" from="-129488587" to="129489850"/>
    <trip id="veh123" type="veh_passenger" depart="302.67" departLane="best" departSpeed="max" from="129489547" to="129489473"/>
    <trip id="veh124" type="veh_passenger" depart="305.13" departLane="best" departSpeed="max" from="-129489473" to="-129487735"/>
    <trip id="veh125" type="veh_passenger" depart="307.59" departLane="best" departSpeed="max" from="129489306" to="129487787"/>
    <trip id="veh126" type="veh_passenger" depart="310.05" departLane="best" from="129487087" to="129490032#2"/>
    <trip id="veh127" type="veh_passenger" depart="312.51" departLane="best" from="129487590" to="-118161787#4"/>
    <trip id="veh128" type="veh_passenger" depart="314.97" departLane="best" from="129489212" to="-129488833"/>
    <trip id="veh129" type="veh_passenger" depart="317.43" departLane="best" from="129487651" to="129489980"/>
    <trip id="veh130" type="veh_passenger" depart="319.90" departLane="best" from="-129487085#9" to="-129487087"/>
    <trip id="veh131" type="veh_passenger" depart="322.36" departLane="best" departSpeed="max" from="-129487085#13" to="118175630"/>
    <trip id="veh132" type="veh_passenger" depart="324.82" departLane="best" from="-129488742#0" to="129487085#12"/>
    <trip id="veh133" type="veh_passenger" depart="327.28" departLane="best" from="129488301" to="-129487920"/>
    <trip id="veh134" type="veh_passenger" depart="329.74" departLane="best" from="129487146" to="-129488715"/>
    <trip id="veh135" type="veh_passenger" depart="332.20" departLane="best" departSpeed="max" from="-129490032#2" to="129489665"/>
    <trip id="veh136" type="veh_passenger" depart="334.66" departLane="best" from="129489348" to="-129487085#2"/>
    <trip id="veh137" type="veh_passenger" depart="337.12" departLane="best" departSpeed="max" from="-129489850" to="-129488715"/>
    <trip id="veh138" type="veh_passenger" depart="339.58" departLane="best" from="-118161787#4" to="129488571"/>
    <trip id="veh139" type="veh_passenger" depart="342.04" departLane="best" from="129487327" to="-129488715"/>
    <trip id="veh140" type="veh_passenger" depart="344.50" departLane="best" from="129488477" to="118175630"/>
    <trip id="veh141" type="veh_passenger" depart="346.96" departLane="best" from="-129489980" to="-118161787#4"/>
    <trip id="veh142" type="veh_passenger" depart="349.42" departLane="best" from="-129486909" to="129489488"/>
    <trip id="veh143" type="veh_passenger" depart="351.88" departLane="best" from="129489695" to="118161787#6"/>
    <trip id="veh144" type="veh_passenger" depart="354.35" departLane="best" departSpeed="max" from="129489306" to="129486871"/>
    <trip id="veh145" type="veh_passenger" depart="356.81" departLane="best" departSpeed="max" from="-129489015" to="129489568"/>
    <trip id="veh146" type="veh_passenger" depart="359.27" departLane="best" from="129488833" to="129489442"/>
    <trip id="veh147" type="veh_passenger" depart="361.73" departLane="best" from="129489665" to="-129487944"/>
    <trip id="veh148" type="veh_passenger" depart="364.19" departLane="best" from="-129488477" to="-129487085#5"/>
    <trip id="veh149" type="veh_passenger" depart="366.65" departLane="best" from="129488742#1" to="129489488"/>
    <trip id="veh150" type="veh_passenger" depart="369.11" departLane="best" from="-129489802" to="129487085#13"/>
    <trip id="veh151" type="veh_passenger" depart="371.57" departLane="best" from="-129487403" to="129489850"/>
    <trip id="veh152" type="veh_passenger" depart="374.03" departLane="best" from="129489491" to="129490032#2"/>
    <trip id="veh153" type="veh_passenger" depart="376.49" departLane="best" from="129489084" to="129489473"/>
    <trip id="veh154" type="veh_passenger" depart="378.95" departLane="best" departSpeed="max" from="-118161787#6" to="129488286"/>
    <trip id="veh155" type="veh_passenger" depart="381.41" departLane="best" from="-129489227" to="129489850"/>
    <trip id="veh156" type="veh_passenger" depart="383.87" departLane="best" from="129488934" to="129489459"/>
    <trip id="veh157" type="veh_passenger" depart="386.34" departLane="best" from="129488769" to="-129487085#7"/>
    <trip id="veh158" type="veh_passenger" depart="388.80" departLane="best" departSpeed="max" from="129489547" to="129489370"/>
    <trip id="veh159" type="veh_passenger" depart="391.26" departLane="best" from="-129488044" to="129489015"/>
    <trip id="veh160" type="veh_passenger" depart="393.72" departLane="best" departSpeed="max" from="-129490032#2" to="-129488837"/>
    <trip id="veh161" type="veh_passenger" depart="396.18" departLane="best" from="129488833" to="-129488307"/>
    <trip id="veh162" type="veh_passenger" depart="398.64" departLane="best" departSpeed="max" from="-118161787#6" to="-129487874"/>
    <trip id="veh163" type="veh_passenger" depart="401.10" departLane="best" from="-129489212" to="129489459"/>
    <trip id="veh164" type="veh_passenger" depart="403.56" departLane="best" departSpeed="max" from="129490032#0" to="-129488735"/>
    <trip id="veh165" type="veh_passenger" depart="406.02" departLane="best" from="129487393" to="-129489589"/>
    <trip id="veh166" type="veh_passenger" depart="408.48" departLane="best" departSpeed="max" from="129490032#0" to="118161787#6"/>
    <trip id="veh167" type="veh_passenger" depart="410.94" departLane="best" departSpeed="max" from="129489978" to="-129487087"/>
    <trip id="veh168" type="veh_passenger" depart="413.40" departLane="best" departSpeed="max" from="129490032#0" to="-129487786"/>
    <trip id="veh169" type="veh_passenger" depart="415.86" departLane="best" departSpeed="max" from="129490032#0" to="-129488715"/>
    <trip id="veh170" type="veh_passenger" depart="418.32" departLane="best" departSpeed="max" from="-129487085#13" to="-129489966"/>
    <trip id="veh171" type="veh_passenger" depart="420.79" departLane="best" from="129488388" to="-129488998"/>
    <trip id="veh172" type="veh_passenger" depart="423.25" departLane="best" from="129487085#8" to="118161787#0"/>
    <trip id="veh173" type="veh_passenger" depart="425.71" departLane="best" from="-129489564" to="129486859"/>
    <trip id="veh174" type="veh_passenger" depart="428.17" departLane="best" from="-129488493" to="129487787"/>
    <trip id="veh175" type="veh_passenger" depart="430.63" departLane="best" from="-118161787#4" to="129489850"/>
    <trip id="veh176" type="veh_passenger" depart="433.09" departLane="best" from="129486840" to="129487841"/>
    <trip id="veh177" type="veh_passenger" depart="435.55" departLane="best" departSpeed="max" from="-129489473" to="-129487085#0"/>
    <trip id="veh178" type="veh_passenger" depart="438.01" departLane="best" from="129487704" to="-129489274"/>
    <trip id="veh179" type="veh_passenger" depart="440.47" departLane="best" departSpeed="max" from="-129489015" to="129489275"/>
    <trip id="veh180" type="veh_passenger" depart="442.93" departLane="best" from="129488307" to="-129488833"/>
    <trip id="veh181" type="veh_passenger" depart="445.39" departLane="best" departSpeed="max" from="-129489015" to="-129489695"/>
    <trip id="veh182" type="veh_passenger" depart="447.85" departLane="best" from="-129489733" to="-129488817"/>
    <trip id="veh183" type="veh_passenger" depart="450.31" departLane="best" from="-129487085#6" to="-129489939"/>
    <trip id="veh184" type="veh_passenger" depart="452.78" departLane="best" departSpeed="max" from="129489978" to="129487600"/>
    <trip id="veh185" type="veh_passenger" depart="455.24" departLane="best" from="129489682" to="129487085#13"/>
    <trip id="veh186" type="veh_passenger" depart="457.70" departLane="best" from="-129488983" to="118161787#6"/>
    <trip id="veh187" type="veh_passenger" depart="460.16" departLane="best" from="-118161787#4" to="-129488754"/>
    <trip id="veh188" type="veh_passenger" depart="462.62" departLane="best" from="-129489980" to="129486871"/>
    <trip id="veh189" type="veh_passenger" depart="465.08" departLane="best" from="129487600" to="-129490032#0"/>
    <trip id="veh190" type="veh_passenger" depart="467.54" departLane="best" departSpeed="max" from="-129489982" to="-129487973"/>
    <trip id="veh191" type="veh_passenger" depart="470.00" departLane="best" departSpeed="max" from="-129490032#2" to="129489589"/>
    <trip id="veh192" type="veh_passenger" depart="472.46" departLane="best" from="129488833" to="-129487735"/>
    <trip id="veh193" type="veh_passenger" depart="474.92" departLane="best" from="-129487085#1" to="118161787#5"/>
    <trip id="veh194" type="veh_passenger" depart="477.38" departLane="best" from="129487146" to="-129489306"/>
    <trip id="veh195" type="veh_passenger" depart="479.84" departLane="best" from="129489212" to="129488391"/>
    <trip id="veh196" type="veh_passenger" depart="482.30" departLane="best" departSpeed="max" from="129487735" to="-129488301"/>
    <trip id="veh197" type="veh_passenger" depart="484.76" departLane="best" departSpeed="max" from="-129487787" to="-118161787#4"/>
    <trip id="veh198" type="veh_passenger" depart="487.23" departLane="best" from="-129488391" to="-129490032#0"/>
    <trip id="veh199" type="veh_passenger" depart="489.69" departLane="best" from="129489368" to="-129487085#0"/>
    <trip id="veh200" type="veh_passenger" depart="492.15" departLane="best" departSpeed="max" from="-129489850" to="129487085#4"/>
    <trip id="veh201" type="veh_passenger" depart="494.61" departLane="best" departSpeed="max" from="-129487787" to="129487786"/>
    <trip id="veh202" type="veh_passenger" depart="497.07" departLane="best" departSpeed="max" from="118161787#0" to="-129488477"/>
    <trip id="veh203" type="veh_passenger" depart="499.53" departLane="best" from="129487600" to="-118161787#4"/>
    <trip id="veh204" type="veh_passenger" depart="501.99" departLane="best" from="129488584" to="129488571"/>
    <trip id="veh205" type="veh_passenger" depart="504.45" departLane="best" departSpeed="max" from="-129487085#13" to="-129489966"/>
    <trip id="veh206" type="veh_passenger" depart="506.91" departLane="best" from="-129487704" to="129489988"/>
    <trip id="veh207" type="veh_passenger" depart="509.37" departLane="best" departSpeed="max" from="118161787#0" to="-129486896"/>
    <trip id="veh208" type="veh_passenger" depart="511.83" departLane="best" from="-129488474" to="129489275"/>
    <trip id="veh209" type="veh_passenger" depart="514.29" departLane="best" from="-129490032#1" to="129488833"/>
    <trip id="veh210" type="veh_passenger" depart="516.75" departLane="best" departSpeed="max" from="129487735" to="129490032#2"/>
    <trip id="veh211" type="veh_passenger" depart="519.21" departLane="best" from="129487085#5" to="129489982"/>
    <trip id="veh212" type="veh_passenger" depart="521.68" departLane="best" from="129489568" to="129487085#13"/>
    <trip id="veh213" type="veh_passenger" depart="524.14" departLane="best" from="129488301" to="118156096"/>
    <trip id="veh214" type="veh_passenger" depart="526.60" departLane="best" departSpeed="max" from="129489306" to="118161787#6"/>
    <trip id="veh215" type="veh_passenger" depart="529.06" departLane="best" from="129489665" to="129488307"/>
    <trip id="veh216" type="veh_passenger" depart="531.52" departLane="best" departSpeed="max" from="-129490032#2" to="-129488587"/>
    <trip id="veh217" type="veh_passenger" depart="533.98" departLane="best" from="-129488474" to="129487085#6"/>
    <trip id="veh218" type="veh_passenger" depart="536.44" departLane="best" departSpeed="max" from="129488715" to="118161787#6"/>
    <trip id="veh219" type="veh_passenger" depart="538.90" departLane="best" departSpeed="max" from="129487107" to="-129488715"/>
    <trip id="veh220" type="veh_passenger" depart="541.36" departLane="best" from="-129486909" to="-129488742#1"/>
    <trip id="veh221" type="veh_passenger" depart="543.82" departLane="best" from="-129488742#0" to="-129489152"/>
    <trip id="veh222" type="veh_passenger" depart="546.28" departLane="best" from="129486859" to="-129487581"/>
    <trip id="veh223" type="veh_passenger" depart="548.74" departLane="best" from="-129488301" to="129487753"/>
    <trip id="veh224" type="veh_passenger" depart="551.20" departLane="best" from="129487973" to="-129487085#0"/>
    <trip id="veh225" type="veh_passenger" depart="553.67" departLane="best" from="-129489802" to="118161787#6"/>
    <trip id="veh226" type="veh_passenger" depart="556.13" departLane="best" departSpeed="max" from="-129489850" to="-129487920"/>
    <trip id="veh227" type="veh_passenger" depart="558.59" departLane="best" departSpeed="max" from="-129489850" to="129489665"/>
    <trip id="veh228" type="veh_passenger" depart="561.05" departLane="best" from="129487085#12" to="129487786"/>
    <trip id="veh229" type="veh_passenger" depart="563.51" departLane="best" from="129489459" to="129488493"/>
    <trip id="veh230" type="veh_passenger" depart="565.97" departLane="best" from="-129489563" to="-118161787#4"/>
    <trip id="veh231" type="veh_passenger" depart="568.43" departLane="best" from="-129489442" to="129488391"/>
    <trip id="veh232" type="veh_passenger" depart="570.89" departLane="best" from="129489370" to="129489982"/>
    <trip id="veh233" type="veh_passenger" depart="573.35" departLane="best" departSpeed="max" from="-129489850" to="129488387"/>
    <trip id="veh234" type="veh_passenger" depart="575.81" departLane="best" from="129486896" to="129487085#11"/>
    <trip id="veh235" type="veh_passenger" depart="578.27" departLane="best" from="-129487973" to="-129488151"/>
    <trip id="veh236" type="veh_passenger" depart="580.73" departLane="best" departSpeed="max" from="-129489982" to="-118161787#4"/>
    <trip id="veh237" type="veh_passenger" depart="583.19" departLane="best" from="-129489274" to="129487646"/>
    <trip id="veh238" type="veh_passenger" depart="585.65" departLane="best" from="-129489733" to="-129487735"/>
    <trip id="veh239" type="veh_passenger" depart="588.12" departLane="best" departSpeed="max" from="-129490032#2" to="-129487327"/>
    <trip id="veh240" type="veh_passenger" depart="590.58" departLane="best" departSpeed="max" from="129487107" to="-118161787#4"/>
    <trip id="veh241" type="veh_passenger" depart="593.04" departLane="best" from="-129489665" to="129486858"/>
    <trip id="veh242" type="veh_passenger" depart="595.50" departLane="best" departSpeed="max" from="-118161787#6" to="129487085#8"/>