<?xml version="1.0" encoding="UTF-8"?>

<!-- generated on Tue Nov 12 13:39:56 2019 by Eclipse SUMO polyconvert Version 1.3.1
<configuration xmlns:xsi="http://www.w3.org/2001/XMLSchema-instance" xsi:noNamespaceSchemaLocation="http://sumo.dlr.de/xsd/polyconvertConfiguration.xsd">

    <input>
        <net-file value="osm.net.xml"/>
        <osm-files value="osm_bbox.osm.xml"/>
        <osm.keep-full-type value="true"/>
        <type-file value="/usr/share/sumo/data/typemap/osmPolyconvert.typ.xml"/>
    </input>

    <output>
        <output-file value="osm.poly.xml"/>
    </output>

    <processing>
        <poi-layer-offset value="5"/>
    </processing>

    <report>
        <verbose value="true"/>
    </report>

</configuration>
-->

<additional xmlns:xsi="http://www.w3.org/2001/XMLSchema-instance" xsi:noNamespaceSchemaLocation="http://sumo.dlr.de/xsd/additional_file.xsd">
    <location netOffset="-553937.95,-4757379.72" convBoundary="-6186.08,0.00,6372.90,14310.48" origBoundary="141.585855,42.967100,141.740570,43.096400" projParameter="+proj=utm +zone=54 +ellps=WGS84 +datum=WGS84 +units=m +no_defs"/>

    <poly id="132997273" type="waterway.stream" color="181,209,209" fill="0" layer="-4.00" shape="2264.298925,6825.538970 2261.760938,6828.016899 2209.702250,6853.232438 2150.101866,6882.106930 2143.825266,6886.442215 2072.969164,6920.844576 1909.220095,7002.642853 1831.435322,7040.755940 1762.428941,7074.521317 1736.207283,7084.958184 1689.071301,7106.441766 1672.755397,7115.071474 1591.221769,7155.655553 1580.566038,7160.566608 1512.813255,7193.767147 1506.534244,7197.481069 1297.022873,7300.145926 1256.252215,7321.683856 1235.588062,7327.136598 1175.991004,7356.641400 1167.873281,7359.074765 1161.589692,7363.399774 1111.406805,7387.372616 1057.473219,7413.803330 1029.252556,7427.958301 1016.700770,7434.731842 1010.440571,7437.180317 891.883130,7495.577487 879.960783,7501.101380 871.182744,7506.672704 753.883863,7563.860694 750.142771,7565.096822 722.544555,7577.980867 713.141370,7582.292454 710.633637,7584.149271 554.473018,7660.365160 456.014165,7708.357369 403.934845,7734.807912 385.759866,7744.047789 220.816526,7826.453909 148.691145,7862.131911 98.962129,7877.020140 77.223885,7882.656650 39.405362,7891.320285 7.543106,7897.765560"/>
    <poly id="132997274" type="waterway.stream" color="181,209,209" fill="0" layer="-4.00" shape="3725.887757,6072.519026 3635.393088,6118.556458 3599.006743,6136.363803 3560.111271,6156.060436 3556.961470,6158.532753 3506.775341,6183.709885 3511.069322,6192.475032 3584.127895,6343.726856 3690.351255,6563.992193 3761.597521,6712.765405 3776.959962,6742.258559 3806.427595,6804.388399 3808.910577,6807.530071 3832.209881,6857.114013 3891.786022,6979.469600 3943.964780,7088.036464 3945.174123,7092.433468 4001.645829,7208.566852 4012.194403,7235.743141 3936.094795,7276.712034 3931.717508,7277.941052 3850.786237,7321.002304 3818.756121,7340.744301 3786.112040,7357.960259 3688.223763,7408.376686 3661.251318,7420.676753 3649.345818,7426.806818 3580.955236,7459.337516 3573.423778,7463.649841 3555.870508,7470.998631 3507.558581,7494.347840 3494.415361,7502.377962 3426.031506,7534.288321 3414.728964,7540.457163 3276.104424,7607.385302 3091.717129,7696.479062 3011.427398,7735.168676 2782.475454,7845.156040 2771.494010,7851.050949 2763.677716,7852.496513 2747.958470,7864.860130 2631.309213,7922.021509 2554.790454,7959.481549 2396.074022,8038.788554 2278.149711,8097.200308 2268.751326,8100.887884 2239.900622,8114.410771 2207.929187,8131.017752 2132.031334,8167.843420 2015.367896,8225.037244 1853.565992,8303.676169 1818.446960,8320.914497 1753.257866,8351.634660 1749.477471,8354.724571 1600.829660,8427.268450 1375.682378,8537.921735 1361.253853,8545.301361 1284.134830,8582.193061 1266.572079,8591.391114 1257.175115,8595.057862 1237.124818,8603.647306 1233.359764,8604.882970 1193.298572,8615.176841 1167.049567,8618.730048 1158.226781,8621.912908"/>
    <poly id="133030815" type="waterway.stream" color="181,209,209" fill="0" layer="-4.00" shape="1349.871781,6016.913773 1348.845193,6012.863020 1351.978753,6000.205687 1355.862149,5981.479623 1381.786140,5869.211136 1296.961918,5696.021891 1292.649830,5689.112693 1256.388115,5613.179584 1251.450375,5605.021536 1216.419086,5531.008758 1209.026145,5519.077250 1179.197201,5498.191558 1169.492141,5492.038616 1163.029198,5488.066285 1137.581861,5468.493209 1124.519591,5460.269878 1110.851315,5451.397570 1107.155038,5443.871535 1103.555613,5426.328999 1096.818707,5408.783445 1093.732993,5404.371906 1076.364984,5387.362809 1053.360330,5374.062167 1049.658951,5367.158040 1041.810850,5332.700847 1029.629809,5293.855457 1029.124768,5277.592759 1035.477378,5263.883908 1036.858870,5250.168448 900.405249,4967.201909 893.599412,4957.119009 845.020601,4861.099542 833.314967,4841.015754 822.799857,4825.939040 811.009181,4816.471582 794.183639,4808.807416 772.985984,4803.640424 668.726710,4787.815300 658.753993,4783.360137 650.718100,4775.177845 638.947456,4760.091411 579.948745,4638.359131 535.652350,4549.250498 533.302809,4531.096352 534.008597,4519.218974 536.576739,4512.975851 541.089112,4494.909629 541.258000,4473.688168 536.453056,4448.629011 530.396007,4424.204021 525.107442,4381.038899 519.725654,4351.632881 514.249658,4334.064688 496.403976,4297.674096 470.582763,4244.350767 441.076775,4182.846771 429.358970,4163.996360 402.124538,4129.419439 402.958771,4115.710655 406.717681,4093.973532"/>
    <poly id="156809485" type="landuse.meadow" color="194,194,130" fill="1" layer="-3.00" shape="1772.742699,5814.866832 1889.737156,6048.406305 2315.478314,5838.031278 2278.923237,5764.555570 2328.987916,5737.091815 2257.975096,5571.711216 2017.211536,5694.899152 2032.393113,5732.760361 1941.103212,5777.314278 1918.493430,5738.959517 1772.742699,5814.866832"/>
    <poly id="156809486" type="landuse.meadow" color="194,194,130" fill="1" layer="-3.00" shape="1894.895596,6059.343057 1953.528940,6182.494998 1987.548535,6168.546622 2000.852797,6198.707334 2012.690036,6194.017580 2054.611180,6276.953433 2498.589397,6055.577935 2487.425000,6031.964017 2444.178733,6051.930918 2417.333538,5996.980955 2454.206861,5978.116347 2404.837643,5868.818451 2347.619020,5887.360464 2327.645367,5846.849270 1894.895596,6059.343057"/>
    <poly id="156890859" type="landuse.meadow" color="194,194,130" fill="1" layer="-3.00" shape="1173.253839,7139.225883 1247.259481,7292.203473 1448.659467,7194.102480 1425.824150,7145.630131 1438.562884,7137.015300 1426.960211,7112.977541 1449.780271,7100.968264 1412.386498,7023.147973 1173.253839,7139.225883"/>
    <poly id="156890860" type="landuse.meadow" color="194,194,130" fill="1" layer="-3.00" shape="648.239759,5732.662290 655.985733,5753.547136 631.375086,5763.890069 639.072714,5785.729595 528.499392,5837.111640 546.531433,5878.201640 611.436641,5852.587219 651.923435,5933.836825 665.961329,5926.974499 702.853443,6009.250784 679.905978,6036.942708 701.431816,6083.191848 659.282316,6101.235206 682.483677,6151.939917 720.202121,6135.693735 757.225259,6212.562972 719.443618,6230.640871 744.354036,6286.590227 1228.874507,6049.098609 1215.062003,6016.836405 1173.816920,6035.672414 1150.624966,5995.327634 1190.167498,5970.380766 1170.374734,5931.895745 1143.901232,5950.928663 1063.908351,5787.387641 1078.018062,5772.697251 1055.579404,5736.790041 1074.110916,5725.533506 1029.357670,5637.183909 995.062053,5650.934930 960.669856,5579.227496 648.239759,5732.662290"/>
    <poly id="156890861" type="landuse.farmland" color="194,194,130" fill="1" layer="-3.00" shape="870.856717,6533.625831 917.409157,6623.677070 1397.834495,6390.684764 1321.696948,6238.499370 889.447690,6450.593503 916.939791,6510.484529 870.856717,6533.625831"/>
    <poly id="156890862" type="landuse.farmland" color="194,194,130" fill="1" layer="-3.00" shape="965.420689,6721.614278 1002.541671,6791.633612 1482.256532,6553.755126 1406.074641,6399.458255 1020.803877,6585.348408 1066.481140,6674.516331 965.420689,6721.614278"/>
    <poly id="156890863" type="landuse.farmland" color="194,194,130" fill="1" layer="-3.00" shape="1088.462346,6976.544909 1162.918712,7128.647762 1598.665877,6913.123592 1525.936600,6764.939121 1088.462346,6976.544909"/>
    <poly id="156890864" type="landuse.farmland" color="194,194,130" fill="1" layer="-3.00" shape="1007.215491,6808.229684 1086.857957,6967.347621 1523.927052,6750.507668 1515.766213,6733.027819 1562.681301,6706.876847 1496.481375,6570.029121 1007.215491,6808.229684"/>
    <poly id="482800293" type="landuse.farmland" color="194,194,130" fill="1" layer="-3.00" shape="1300.794759,6029.788642 1742.618243,5828.659189 1983.556702,6301.026888 2536.067850,6087.782703 2325.237222,5573.818691 2827.381900,5327.066018 3032.777784,5861.923709 3594.775391,5568.693021 3665.757491,5238.240131 3622.492066,4976.503452 3777.293374,4868.027177 3777.696855,4820.176116 3781.642161,4352.259781 4493.443690,4764.323207 4581.262374,4925.384553 4901.692823,5234.816574 5232.973267,5297.343912 5220.341963,5342.535076 4984.001036,5474.664709 5077.918396,5635.774399 4986.381666,5706.417775 4960.898938,5822.930949 4865.222278,5866.542184 4828.745481,5838.353380 4881.073099,5751.689482 4836.256476,5676.385028 4552.790858,5801.139157 4621.371044,6062.199848 4836.591068,6145.927935 5057.262843,6104.270326 5106.494260,5971.414757 4806.230496,6016.740513 5191.060239,5898.091800 5235.833837,5977.751789 5052.625130,6135.593008 5101.998886,6289.333948 4965.673196,6587.803510 5244.585068,6684.287742 5436.843367,7093.580510 5029.535772,7292.126632 5038.376424,7483.810932 5495.413900,8400.453705 5674.145112,8349.756817 6372.903199,9585.391413 3507.950876,11217.405962 3261.071228,11280.614182 2975.677385,11144.183509 2724.991358,11139.478586 2351.979460,11031.067639 1857.481515,10393.272506 1554.279769,10289.818919 1545.968580,10021.614668 1834.615657,9341.372850 1598.021238,9207.099579 1177.319668,8496.639119 1051.574297,8502.856392 613.874270,8575.723699 359.841423,8430.893652 166.375851,8140.246327 199.689728,7907.113559 1831.435322,7040.755940 1300.794759,6029.788642"/>
    <poly id="482800298" type="landuse.farmland" color="194,194,130" fill="1" layer="-3.00" shape="775.806504,6303.888843 838.028769,6448.115968 1312.358604,6222.398494 1244.998704,6065.487304 775.806504,6303.888843"/>
    <poly id="482800300" type="landuse.farmland" color="194,194,130" fill="1" layer="-3.00" shape="-260.184928,6867.954730 743.469829,6412.510018 1159.674387,7269.441488 134.754108,7773.354184 202.672697,7143.346341 126.613191,7034.742399 -260.184928,6867.954730"/>
    <poly id="482800303" type="landuse.farmland" color="194,194,130" fill="1" layer="-3.00" shape="-6186.082020,3636.336957 -5878.293435,3145.265514 -5349.567861,2831.781083 -5303.618263,2520.100527 -5321.727858,2113.824917 -5265.095456,2021.841169 -4995.637846,2016.786677 -4515.296702,2365.380660 -4058.216497,2298.973732 -3950.199134,2120.208316 -3484.112869,2020.777531 -3067.898666,1807.698768 -1797.432341,1309.939891 -315.424227,4434.384693 1764.212851,3335.630376 2015.092012,3794.627753 1762.635786,3916.297139 1530.443072,4015.928595 1579.542537,4125.750265 1577.398057,4126.854543 1275.696251,4264.056789 1436.654456,4581.645038 1210.747400,4727.937018 1231.839179,4823.082297 1422.230842,4743.592827 1667.392030,5134.155288 1605.114109,5158.037588 1580.938077,5120.382099 1437.053539,5181.074852 1591.294398,5461.109578 1841.239214,5367.311553 2034.217652,5290.481193 2115.400841,5413.108004 1857.320368,5539.935688 1924.256640,5693.806517 1257.281835,6005.482606 1023.352547,5524.469011 463.513702,5779.600614 712.955849,6292.058752 -469.630684,6822.758159 -859.725709,6852.825946 -1264.169946,6475.152459 -1859.746616,5935.748661 -2223.716843,5973.068076 -2594.603370,5999.882355 -2728.656560,5688.766706 -2961.468445,5488.406053 -2990.358716,4906.228350 -3266.287392,4620.145654 -3600.636718,4425.998013 -3775.269755,4152.864999 -3751.274181,3980.517220 -3845.165059,3904.889880 -4030.777477,3934.907362 -4110.622185,3850.668331 -4146.558564,3501.850829 -4605.881795,3162.153505 -5060.001810,3068.265902 -5148.432159,3205.331560 -5352.770739,3160.301144 -5514.254356,3239.327449 -5603.272004,3460.051841 -6106.061804,3824.243832 -6186.082020,3636.336957"/>
    <poly id="484881542" type="building.yes" color="255,230,230" fill="1" layer="-1.00" shape="3181.594922,5756.127624 3187.161367,5767.757336 3193.690203,5764.646718 3188.115525,5753.028038 3181.594922,5756.127624"/>
    <poly id="484881542#1" type="shop.bakery" color="237,199,255" fill="1" layer="-1.00" shape="3181.594922,5756.127624 3187.161367,5767.757336 3193.690203,5764.646718 3188.115525,5753.028038 3181.594922,5756.127624"/>
    <poly id="69737809" type="natural.wood" color="140,196,107" fill="1" layer="-4.00" shape="1328.622727,7514.207663 1289.343901,7535.768545 1279.875283,7548.130447 1679.722902,8368.971802 1764.298397,8546.241045 1767.368185,8549.375655 1768.915746,8549.388265 1790.876637,8543.348042 1825.427238,8521.751513 1819.333932,8499.823570 1579.441835,8008.554338 1402.638155,7639.856151 1345.710847,7526.784134 1333.335007,7515.800540 1328.622727,7514.207663"/>
</additional>
