<?xml version="1.0" encoding="UTF-8"?>

<!-- generated on Tue Nov 12 13:39:56 2019 by Eclipse SUMO netconvert Version 1.3.1
<configuration xmlns:xsi="http://www.w3.org/2001/XMLSchema-instance" xsi:noNamespaceSchemaLocation="http://sumo.dlr.de/xsd/netconvertConfiguration.xsd">

    <input>
        <type-files value="/usr/share/sumo/data/typemap/osmNetconvert.typ.xml"/>
        <osm-files value="osm_bbox.osm.xml"/>
    </input>

    <output>
        <output-file value="osm.net.xml"/>
        <output.street-names value="true"/>
        <output.original-names value="true"/>
    </output>

    <projection>
        <proj.utm value="true"/>
    </projection>

    <processing>
        <geometry.remove value="true"/>
        <roundabouts.guess value="true"/>
    </processing>

    <tls_building>
        <tls.discard-simple value="true"/>
        <tls.join value="true"/>
        <tls.guess-signals value="true"/>
        <tls.default-type value="actuated"/>
    </tls_building>

    <ramp_guessing>
        <ramps.guess value="true"/>
    </ramp_guessing>

    <junctions>
        <junctions.join value="true"/>
        <junctions.corner-detail value="5"/>
    </junctions>

    <report>
        <verbose value="true"/>
    </report>

</configuration>
-->

<net version="1.3" junctionCornerDetail="5" limitTurnSpeed="5.50" xmlns:xsi="http://www.w3.org/2001/XMLSchema-instance" xsi:noNamespaceSchemaLocation="http://sumo.dlr.de/xsd/net_file.xsd">

    <location netOffset="-553937.95,-4757379.72" convBoundary="0.00,0.00,4087.72,8586.73" origBoundary="141.661977,42.967100,141.712261,43.044709" projParameter="+proj=utm +zone=54 +ellps=WGS84 +datum=WGS84 +units=m +no_defs"/>

    <type id="highway.bridleway" priority="1" numLanes="1" speed="2.78" allow="pedestrian" oneway="1" width="2.00"/>
    <type id="highway.bus_guideway" priority="1" numLanes="1" speed="27.78" allow="bus" oneway="1"/>
    <type id="highway.cycleway" priority="1" numLanes="1" speed="8.33" allow="bicycle" oneway="0" width="1.00"/>
    <type id="highway.footway" priority="1" numLanes="1" speed="2.78" allow="pedestrian" oneway="1" width="2.00"/>
    <type id="highway.ford" priority="1" numLanes="1" speed="2.78" allow="army" oneway="0"/>
    <type id="highway.living_street" priority="2" numLanes="1" speed="2.78" disallow="tram rail_urban rail rail_electric rail_fast ship" oneway="0"/>
    <type id="highway.motorway" priority="14" numLanes="2" speed="39.44" allow="private emergency authority army vip passenger hov taxi bus coach delivery truck trailer motorcycle evehicle custom1 custom2" oneway="1"/>
    <type id="highway.motorway_link" priority="9" numLanes="1" speed="22.22" allow="private emergency authority army vip passenger hov taxi bus coach delivery truck trailer motorcycle evehicle custom1 custom2" oneway="1"/>
    <type id="highway.path" priority="1" numLanes="1" speed="2.78" allow="pedestrian bicycle" oneway="1" width="2.00"/>
    <type id="highway.pedestrian" priority="1" numLanes="1" speed="2.78" allow="pedestrian" oneway="1" width="2.00"/>
    <type id="highway.primary" priority="12" numLanes="2" speed="27.78" disallow="tram rail_urban rail rail_electric rail_fast ship" oneway="0"/>
    <type id="highway.primary_link" priority="7" numLanes="1" speed="22.22" disallow="tram rail_urban rail rail_electric rail_fast ship" oneway="0"/>
    <type id="highway.raceway" priority="15" numLanes="2" speed="83.33" allow="vip" oneway="0"/>
    <type id="highway.residential" priority="3" numLanes="1" speed="13.89" disallow="tram rail_urban rail rail_electric rail_fast ship" oneway="0"/>
    <type id="highway.secondary" priority="11" numLanes="2" speed="27.78" disallow="tram rail_urban rail rail_electric rail_fast ship" oneway="0"/>
    <type id="highway.secondary_link" priority="6" numLanes="1" speed="22.22" disallow="tram rail_urban rail rail_electric rail_fast ship" oneway="0"/>
    <type id="highway.service" priority="1" numLanes="1" speed="5.56" allow="pedestrian delivery bicycle" oneway="0"/>
    <type id="highway.stairs" priority="1" numLanes="1" speed="1.39" allow="pedestrian" oneway="1" width="2.00"/>
    <type id="highway.step" priority="1" numLanes="1" speed="1.39" allow="pedestrian" oneway="1" width="2.00"/>
    <type id="highway.steps" priority="1" numLanes="1" speed="1.39" allow="pedestrian" oneway="1" width="2.00"/>
    <type id="highway.tertiary" priority="10" numLanes="1" speed="22.22" disallow="tram rail_urban rail rail_electric rail_fast ship" oneway="0"/>
    <type id="highway.tertiary_link" priority="5" numLanes="1" speed="22.22" disallow="tram rail_urban rail rail_electric rail_fast ship" oneway="0"/>
    <type id="highway.track" priority="1" numLanes="1" speed="5.56" disallow="tram rail_urban rail rail_electric rail_fast ship" oneway="0"/>
    <type id="highway.trunk" priority="13" numLanes="2" speed="27.78" disallow="pedestrian bicycle tram rail_urban rail rail_electric rail_fast ship" oneway="0"/>
    <type id="highway.trunk_link" priority="8" numLanes="1" speed="22.22" disallow="pedestrian bicycle tram rail_urban rail rail_electric rail_fast ship" oneway="0"/>
    <type id="highway.unclassified" priority="4" numLanes="1" speed="13.89" disallow="tram rail_urban rail rail_electric rail_fast ship" oneway="0"/>
    <type id="highway.unsurfaced" priority="1" numLanes="1" speed="8.33" disallow="tram rail_urban rail rail_electric rail_fast ship" oneway="0"/>
    <type id="railway.highspeed" priority="21" numLanes="1" speed="69.44" allow="rail_fast" oneway="1"/>
    <type id="railway.light_rail" priority="19" numLanes="1" speed="27.78" allow="rail_urban" oneway="1"/>
    <type id="railway.preserved" priority="16" numLanes="1" speed="27.78" allow="rail" oneway="1"/>
    <type id="railway.rail" priority="20" numLanes="1" speed="44.44" allow="rail" oneway="1"/>
    <type id="railway.subway" priority="18" numLanes="1" speed="27.78" allow="rail_urban" oneway="1"/>
    <type id="railway.tram" priority="17" numLanes="1" speed="13.89" allow="tram" oneway="1"/>

    <edge id=":1329612159_0" function="internal">
        <lane id=":1329612159_0_0" index="0" disallow="pedestrian bicycle tram rail_urban rail rail_electric rail_fast ship" speed="3.65" length="4.67" shape="0.70,6037.23 -0.73,6037.03 -1.44,6036.49 -1.43,6035.60 -0.70,6034.35"/>
    </edge>
    <edge id=":1428572213_0" function="internal">
        <lane id=":1428572213_0_0" index="0" disallow="tram rail_urban rail rail_electric rail_fast ship" speed="3.65" length="4.67" shape="238.87,5281.53 239.04,5280.10 239.58,5279.39 240.48,5279.39 241.73,5280.10"/>
    </edge>
    <edge id=":1428572448_0" function="internal">
        <lane id=":1428572448_0_0" index="0" disallow="tram rail_urban rail rail_electric rail_fast ship" speed="3.91" length="2.55" shape="2867.18,5525.32 2866.79,5524.74 2866.30,5524.43 2865.73,5524.37 2865.06,5524.57"/>
    </edge>
    <edge id=":1428572448_1" function="internal">
        <lane id=":1428572448_1_0" index="0" disallow="tram rail_urban rail rail_electric rail_fast ship" speed="6.08" length="7.66" shape="2863.70,5521.67 2865.71,5521.06 2867.43,5521.24 2868.88,5522.19 2870.05,5523.92"/>
    </edge>
    <edge id=":1428572472_0" function="internal">
        <lane id=":1428572472_0_0" index="0" disallow="pedestrian bicycle tram rail_urban rail rail_electric rail_fast ship" speed="6.36" length="9.04" shape="996.62,5558.17 995.34,5556.01 993.71,5554.84 991.70,5554.64 989.32,5555.42"/>
    </edge>
    <edge id=":1428572472_1" function="internal">
        <lane id=":1428572472_1_0" index="0" disallow="pedestrian bicycle tram rail_urban rail rail_electric rail_fast ship" speed="8.87" length="16.89" shape="996.62,5558.17 995.06,5553.03 995.03,5548.84 996.50,5545.60 999.50,5543.31"/>
    </edge>
    <edge id=":1428572472_2" function="internal">
        <lane id=":1428572472_2_0" index="0" disallow="tram rail_urban rail rail_electric rail_fast ship" speed="3.65" length="4.67" shape="996.62,5558.17 996.90,5556.75 997.49,5556.08 998.38,5556.14 999.58,5556.95"/>
    </edge>
    <edge id=":1428572472_3" function="internal">
        <lane id=":1428572472_3_0" index="0" disallow="tram rail_urban rail rail_electric rail_fast ship" speed="6.76" length="9.37" shape="1002.28,5549.08 1000.25,5550.47 999.12,5552.24 998.90,5554.40 999.58,5556.95"/>
    </edge>
    <edge id=":1428572472_4" function="internal">
        <lane id=":1428572472_4_0" index="0" disallow="pedestrian bicycle tram rail_urban rail rail_electric rail_fast ship" speed="27.78" length="14.45" shape="1002.28,5549.08 989.32,5555.42"/>
        <lane id=":1428572472_4_1" index="1" disallow="pedestrian bicycle tram rail_urban rail rail_electric rail_fast ship" speed="27.78" length="14.45" shape="1000.89,5546.19 987.90,5552.55"/>
    </edge>
    <edge id=":1428572472_6" function="internal">
        <lane id=":1428572472_6_0" index="0" disallow="pedestrian bicycle tram rail_urban rail rail_electric rail_fast ship" speed="3.65" length="2.34" shape="1000.89,5546.19 999.46,5545.99 998.75,5545.45"/>
    </edge>
    <edge id=":1428572472_11" function="internal">
        <lane id=":1428572472_11_0" index="0" disallow="pedestrian bicycle tram rail_urban rail rail_electric rail_fast ship" speed="3.65" length="2.34" shape="998.75,5545.45 998.76,5544.55 999.50,5543.31"/>
    </edge>
    <edge id=":1428572472_7" function="internal">
        <lane id=":1428572472_7_0" index="0" disallow="pedestrian bicycle tram rail_urban rail rail_electric rail_fast ship" speed="27.78" length="14.51" shape="985.06,5546.82 998.11,5540.43"/>
        <lane id=":1428572472_7_1" index="1" disallow="pedestrian bicycle tram rail_urban rail rail_electric rail_fast ship" speed="27.78" length="14.51" shape="986.48,5549.68 999.50,5543.31"/>
    </edge>
    <edge id=":1428572472_9" function="internal">
        <lane id=":1428572472_9_0" index="0" disallow="tram rail_urban rail rail_electric rail_fast ship" speed="8.56" length="5.45" shape="986.48,5549.68 990.45,5548.58 991.74,5548.89"/>
    </edge>
    <edge id=":1428572472_10" function="internal">
        <lane id=":1428572472_10_0" index="0" disallow="pedestrian bicycle tram rail_urban rail rail_electric rail_fast ship" speed="3.65" length="2.34" shape="986.48,5549.68 987.91,5549.87 988.62,5550.41"/>
    </edge>
    <edge id=":1428572472_12" function="internal">
        <lane id=":1428572472_12_0" index="0" disallow="tram rail_urban rail rail_electric rail_fast ship" speed="8.56" length="11.80" shape="991.74,5548.89 993.95,5549.42 996.99,5552.21 999.58,5556.95"/>
    </edge>
    <edge id=":1428572472_13" function="internal">
        <lane id=":1428572472_13_0" index="0" disallow="pedestrian bicycle tram rail_urban rail rail_electric rail_fast ship" speed="3.65" length="2.34" shape="988.62,5550.41 988.62,5551.30 987.90,5552.55"/>
    </edge>
    <edge id=":1428572506_0" function="internal">
        <lane id=":1428572506_0_0" index="0" disallow="tram rail_urban rail rail_electric rail_fast ship" speed="3.90" length="2.62" shape="1673.35,5634.98 1672.94,5634.39 1672.45,5634.07 1671.86,5634.03 1671.18,5634.27"/>
    </edge>
    <edge id=":1428572506_1" function="internal">
        <lane id=":1428572506_1_0" index="0" disallow="tram rail_urban rail rail_electric rail_fast ship" speed="6.07" length="7.85" shape="1669.71,5631.42 1671.75,5630.71 1673.51,5630.84 1675.00,5631.79 1676.22,5633.57"/>
    </edge>
    <edge id=":1428572522_0" function="internal">
        <lane id=":1428572522_0_0" index="0" disallow="tram rail_urban rail rail_electric rail_fast ship" speed="3.65" length="4.67" shape="3268.25,5683.73 3269.68,5683.92 3270.39,5684.46 3270.39,5685.35 3269.67,5686.60"/>
    </edge>
    <edge id=":1428572563_0" function="internal">
        <lane id=":1428572563_0_0" index="0" disallow="pedestrian bicycle tram rail_urban rail rail_electric rail_fast ship" speed="6.51" length="9.03" shape="498.96,5804.48 497.57,5802.44 495.85,5801.33 493.82,5801.15 491.47,5801.91"/>
    </edge>
    <edge id=":1428572563_1" function="internal">
        <lane id=":1428572563_1_0" index="0" disallow="tram rail_urban rail rail_electric rail_fast ship" speed="13.89" length="20.86" shape="498.96,5804.48 489.89,5785.70"/>
    </edge>
    <edge id=":1428572563_2" function="internal">
        <lane id=":1428572563_2_0" index="0" disallow="pedestrian bicycle tram rail_urban rail rail_electric rail_fast ship" speed="8.70" length="16.93" shape="498.96,5804.48 497.15,5799.53 496.99,5795.42 498.50,5792.17 501.65,5789.77"/>
    </edge>
    <edge id=":1428572563_3" function="internal">
        <lane id=":1428572563_3_0" index="0" disallow="tram rail_urban rail rail_electric rail_fast ship" speed="3.65" length="4.67" shape="498.96,5804.48 499.15,5803.05 499.69,5802.34 500.59,5802.35 501.83,5803.07"/>
    </edge>
    <edge id=":1428572563_4" function="internal">
        <lane id=":1428572563_4_0" index="0" disallow="tram rail_urban rail rail_electric rail_fast ship" speed="6.55" length="9.13" shape="504.49,5795.51 502.41,5796.93 501.27,5798.67 501.08,5800.71 501.83,5803.07"/>
    </edge>
    <edge id=":1428572563_5" function="internal">
        <lane id=":1428572563_5_0" index="0" disallow="pedestrian bicycle tram rail_urban rail rail_electric rail_fast ship" speed="27.78" length="14.50" shape="504.49,5795.51 491.47,5801.91"/>
        <lane id=":1428572563_5_1" index="1" disallow="pedestrian bicycle tram rail_urban rail rail_electric rail_fast ship" speed="27.78" length="14.50" shape="503.07,5792.64 490.06,5799.03"/>
    </edge>
    <edge id=":1428572563_7" function="internal">
        <lane id=":1428572563_7_0" index="0" disallow="tram rail_urban rail rail_electric rail_fast ship" speed="8.64" length="5.32" shape="503.07,5792.64 499.25,5793.69 497.93,5793.39"/>
    </edge>
    <edge id=":1428572563_8" function="internal">
        <lane id=":1428572563_8_0" index="0" disallow="pedestrian bicycle tram rail_urban rail rail_electric rail_fast ship" speed="3.65" length="2.34" shape="503.07,5792.64 501.64,5792.46 500.93,5791.92"/>
    </edge>
    <edge id=":1428572563_18" function="internal">
        <lane id=":1428572563_18_0" index="0" disallow="tram rail_urban rail rail_electric rail_fast ship" speed="8.64" length="11.62" shape="497.93,5793.39 495.78,5792.89 492.65,5790.22 489.89,5785.70"/>
    </edge>
    <edge id=":1428572563_19" function="internal">
        <lane id=":1428572563_19_0" index="0" disallow="pedestrian bicycle tram rail_urban rail rail_electric rail_fast ship" speed="3.65" length="2.34" shape="500.93,5791.92 500.93,5791.02 501.65,5789.77"/>
    </edge>
    <edge id=":1428572563_9" function="internal">
        <lane id=":1428572563_9_0" index="0" disallow="pedestrian bicycle tram rail_urban rail rail_electric rail_fast ship" speed="6.47" length="9.03" shape="492.78,5784.32 494.15,5786.39 495.85,5787.51 497.88,5787.68 500.23,5786.91"/>
    </edge>
    <edge id=":1428572563_10" function="internal">
        <lane id=":1428572563_10_0" index="0" disallow="tram rail_urban rail rail_electric rail_fast ship" speed="13.89" length="20.82" shape="492.78,5784.32 501.83,5803.07"/>
    </edge>
    <edge id=":1428572563_11" function="internal">
        <lane id=":1428572563_11_0" index="0" disallow="pedestrian bicycle tram rail_urban rail rail_electric rail_fast ship" speed="8.71" length="16.90" shape="492.78,5784.32 494.54,5789.32 494.68,5793.43 493.19,5796.67 490.06,5799.03"/>
    </edge>
    <edge id=":1428572563_12" function="internal">
        <lane id=":1428572563_12_0" index="0" disallow="tram rail_urban rail rail_electric rail_fast ship" speed="3.65" length="4.67" shape="492.78,5784.32 492.57,5785.75 492.02,5786.45 491.12,5786.44 489.89,5785.70"/>
    </edge>
    <edge id=":1428572563_13" function="internal">
        <lane id=":1428572563_13_0" index="0" disallow="tram rail_urban rail rail_electric rail_fast ship" speed="6.56" length="9.12" shape="487.26,5793.27 489.32,5791.88 490.45,5790.15 490.63,5788.09 489.89,5785.70"/>
    </edge>
    <edge id=":1428572563_14" function="internal">
        <lane id=":1428572563_14_0" index="0" disallow="pedestrian bicycle tram rail_urban rail rail_electric rail_fast ship" speed="27.78" length="14.46" shape="487.26,5793.27 500.23,5786.91"/>
        <lane id=":1428572563_14_1" index="1" disallow="pedestrian bicycle tram rail_urban rail rail_electric rail_fast ship" speed="27.78" length="14.46" shape="488.66,5796.15 501.65,5789.77"/>
    </edge>
    <edge id=":1428572563_16" function="internal">
        <lane id=":1428572563_16_0" index="0" disallow="tram rail_urban rail rail_electric rail_fast ship" speed="8.68" length="5.23" shape="488.66,5796.15 492.45,5795.14 493.73,5795.45"/>
    </edge>
    <edge id=":1428572563_17" function="internal">
        <lane id=":1428572563_17_0" index="0" disallow="pedestrian bicycle tram rail_urban rail rail_electric rail_fast ship" speed="3.65" length="2.34" shape="488.66,5796.15 490.09,5796.35 490.80,5796.89"/>
    </edge>
    <edge id=":1428572563_20" function="internal">
        <lane id=":1428572563_20_0" index="0" disallow="tram rail_urban rail rail_electric rail_fast ship" speed="8.68" length="11.60" shape="493.73,5795.45 495.90,5795.96 499.03,5798.60 501.83,5803.07"/>
    </edge>
    <edge id=":1428572563_21" function="internal">
        <lane id=":1428572563_21_0" index="0" disallow="pedestrian bicycle tram rail_urban rail rail_electric rail_fast ship" speed="3.65" length="2.34" shape="490.80,5796.89 490.79,5797.78 490.06,5799.03"/>
    </edge>
    <edge id=":1428572564_0" function="internal">
        <lane id=":1428572564_0_0" index="0" disallow="tram rail_urban rail rail_electric rail_fast ship" speed="6.36" length="9.04" shape="2386.51,5820.60 2385.10,5818.53 2383.38,5817.47 2381.36,5817.41 2379.05,5818.35"/>
    </edge>
    <edge id=":1428572564_1" function="internal">
        <lane id=":1428572564_1_0" index="0" disallow="tram rail_urban rail rail_electric rail_fast ship" speed="18.05" length="14.61" shape="2386.51,5820.60 2380.07,5807.48"/>
    </edge>
    <edge id=":1428572564_2" function="internal">
        <lane id=":1428572564_2_0" index="0" disallow="tram rail_urban rail rail_electric rail_fast ship" speed="8.03" length="6.06" shape="2386.51,5820.60 2385.26,5816.81 2385.41,5814.74"/>
    </edge>
    <edge id=":1428572564_3" function="internal">
        <lane id=":1428572564_3_0" index="0" disallow="tram rail_urban rail rail_electric rail_fast ship" speed="3.65" length="2.34" shape="2386.51,5820.60 2386.70,5819.17 2387.24,5818.46"/>
    </edge>
    <edge id=":1428572564_16" function="internal">
        <lane id=":1428572564_16_0" index="0" disallow="tram rail_urban rail rail_electric rail_fast ship" speed="8.03" length="8.33" shape="2385.41,5814.74 2385.50,5813.55 2387.25,5810.83 2390.48,5808.65"/>
    </edge>
    <edge id=":1428572564_17" function="internal">
        <lane id=":1428572564_17_0" index="0" disallow="tram rail_urban rail rail_electric rail_fast ship" speed="3.65" length="2.34" shape="2387.24,5818.46 2388.13,5818.46 2389.38,5819.19"/>
    </edge>
    <edge id=":1428572564_4" function="internal">
        <lane id=":1428572564_4_0" index="0" disallow="tram rail_urban rail rail_electric rail_fast ship" speed="6.54" length="9.20" shape="2391.87,5811.53 2389.82,5812.92 2388.72,5814.66 2388.57,5816.75 2389.38,5819.19"/>
    </edge>
    <edge id=":1428572564_5" function="internal">
        <lane id=":1428572564_5_0" index="0" disallow="tram rail_urban rail rail_electric rail_fast ship" speed="9.72" length="14.52" shape="2391.87,5811.53 2379.05,5818.35"/>
    </edge>
    <edge id=":1428572564_6" function="internal">
        <lane id=":1428572564_6_0" index="0" disallow="tram rail_urban rail rail_electric rail_fast ship" speed="8.03" length="14.21" shape="2391.87,5811.53 2388.15,5812.71 2384.95,5812.43 2382.25,5810.69 2380.07,5807.48"/>
    </edge>
    <edge id=":1428572564_7" function="internal">
        <lane id=":1428572564_7_0" index="0" disallow="tram rail_urban rail rail_electric rail_fast ship" speed="3.65" length="4.67" shape="2391.87,5811.53 2390.44,5811.33 2389.73,5810.78 2389.75,5809.89 2390.48,5808.65"/>
    </edge>
    <edge id=":1428572564_8" function="internal">
        <lane id=":1428572564_8_0" index="0" disallow="tram rail_urban rail rail_electric rail_fast ship" speed="6.54" length="9.07" shape="2382.94,5806.07 2384.33,5808.12 2386.06,5809.23 2388.11,5809.40 2390.48,5808.65"/>
    </edge>
    <edge id=":1428572564_9" function="internal">
        <lane id=":1428572564_9_0" index="0" disallow="tram rail_urban rail rail_electric rail_fast ship" speed="18.05" length="14.61" shape="2382.94,5806.07 2389.38,5819.19"/>
    </edge>
    <edge id=":1428572564_10" function="internal">
        <lane id=":1428572564_10_0" index="0" disallow="tram rail_urban rail rail_electric rail_fast ship" speed="8.29" length="5.92" shape="2382.94,5806.07 2384.13,5809.76 2383.97,5811.80"/>
    </edge>
    <edge id=":1428572564_11" function="internal">
        <lane id=":1428572564_11_0" index="0" disallow="tram rail_urban rail rail_electric rail_fast ship" speed="3.65" length="2.34" shape="2382.94,5806.07 2382.75,5807.50 2382.21,5808.22"/>
    </edge>
    <edge id=":1428572564_18" function="internal">
        <lane id=":1428572564_18_0" index="0" disallow="tram rail_urban rail rail_electric rail_fast ship" speed="8.29" length="8.54" shape="2383.97,5811.80 2383.87,5813.03 2382.18,5815.90 2379.05,5818.35"/>
    </edge>
    <edge id=":1428572564_19" function="internal">
        <lane id=":1428572564_19_0" index="0" disallow="tram rail_urban rail rail_electric rail_fast ship" speed="3.65" length="2.34" shape="2382.21,5808.22 2381.31,5808.21 2380.07,5807.48"/>
    </edge>
    <edge id=":1428572564_12" function="internal">
        <lane id=":1428572564_12_0" index="0" disallow="tram rail_urban rail rail_electric rail_fast ship" speed="6.85" length="9.57" shape="2377.43,5815.58 2379.52,5813.95 2380.66,5812.06 2380.84,5809.90 2380.07,5807.48"/>
    </edge>
    <edge id=":1428572564_13" function="internal">
        <lane id=":1428572564_13_0" index="0" disallow="tram rail_urban rail rail_electric rail_fast ship" speed="9.72" length="14.78" shape="2377.43,5815.58 2390.48,5808.65"/>
    </edge>
    <edge id=":1428572564_14" function="internal">
        <lane id=":1428572564_14_0" index="0" disallow="tram rail_urban rail rail_electric rail_fast ship" speed="7.88" length="14.47" shape="2377.43,5815.58 2381.15,5814.08 2384.37,5814.18 2387.12,5815.88 2389.38,5819.19"/>
    </edge>
    <edge id=":1428572564_15" function="internal">
        <lane id=":1428572564_15_0" index="0" disallow="tram rail_urban rail rail_electric rail_fast ship" speed="3.65" length="4.67" shape="2377.43,5815.58 2378.87,5815.67 2379.62,5816.16 2379.68,5817.05 2379.05,5818.35"/>
    </edge>
    <edge id=":1428572566_0" function="internal">
        <lane id=":1428572566_0_0" index="0" disallow="tram rail_urban rail rail_electric rail_fast ship" speed="7.00" length="9.81" shape="1760.22,5811.72 1758.80,5809.59 1756.95,5808.36 1754.69,5808.03 1752.00,5808.61"/>
    </edge>
    <edge id=":1428572566_1" function="internal">
        <lane id=":1428572566_1_0" index="0" disallow="tram rail_urban rail rail_electric rail_fast ship" speed="22.22" length="14.72" shape="1760.22,5811.72 1753.84,5798.45"/>
    </edge>
    <edge id=":1428572566_2" function="internal">
        <lane id=":1428572566_2_0" index="0" disallow="tram rail_urban rail rail_electric rail_fast ship" speed="8.04" length="5.81" shape="1760.22,5811.72 1759.09,5808.02 1759.28,5806.08"/>
    </edge>
    <edge id=":1428572566_3" function="internal">
        <lane id=":1428572566_3_0" index="0" disallow="tram rail_urban rail rail_electric rail_fast ship" speed="3.65" length="2.34" shape="1760.22,5811.72 1760.43,5810.29 1760.99,5809.59"/>
    </edge>
    <edge id=":1428572566_16" function="internal">
        <lane id=":1428572566_16_0" index="0" disallow="tram rail_urban rail rail_electric rail_fast ship" speed="8.04" length="8.35" shape="1759.28,5806.08 1759.41,5804.83 1761.17,5802.15 1764.39,5799.97"/>
    </edge>
    <edge id=":1428572566_17" function="internal">
        <lane id=":1428572566_17_0" index="0" disallow="tram rail_urban rail rail_electric rail_fast ship" speed="3.65" length="2.34" shape="1760.99,5809.59 1761.88,5809.61 1763.12,5810.36"/>
    </edge>
    <edge id=":1428572566_4" function="internal">
        <lane id=":1428572566_4_0" index="0" disallow="tram rail_urban rail rail_electric rail_fast ship" speed="6.56" length="9.07" shape="1765.79,5802.84 1763.73,5804.24 1762.60,5805.96 1762.40,5808.00 1763.12,5810.36"/>
    </edge>
    <edge id=":1428572566_5" function="internal">
        <lane id=":1428572566_5_0" index="0" disallow="tram rail_urban rail rail_electric rail_fast ship" speed="13.89" length="14.96" shape="1765.79,5802.84 1762.41,5804.44 1758.98,5805.92 1755.51,5807.31 1752.00,5808.61"/>
    </edge>
    <edge id=":1428572566_6" function="internal">
        <lane id=":1428572566_6_0" index="0" disallow="tram rail_urban rail rail_electric rail_fast ship" speed="8.09" length="14.51" shape="1765.79,5802.84 1762.09,5804.02 1758.86,5803.68 1756.11,5801.82 1753.84,5798.45"/>
    </edge>
    <edge id=":1428572566_7" function="internal">
        <lane id=":1428572566_7_0" index="0" disallow="tram rail_urban rail rail_electric rail_fast ship" speed="3.65" length="4.67" shape="1765.79,5802.84 1764.36,5802.65 1763.65,5802.11 1763.66,5801.21 1764.39,5799.97"/>
    </edge>
    <edge id=":1428572566_8" function="internal">
        <lane id=":1428572566_8_0" index="0" disallow="tram rail_urban rail rail_electric rail_fast ship" speed="6.62" length="9.36" shape="1756.71,5797.04 1758.18,5799.24 1759.95,5800.47 1762.02,5800.71 1764.39,5799.97"/>
    </edge>
    <edge id=":1428572566_9" function="internal">
        <lane id=":1428572566_9_0" index="0" disallow="tram rail_urban rail rail_electric rail_fast ship" speed="22.22" length="14.78" shape="1756.71,5797.04 1763.12,5810.36"/>
    </edge>
    <edge id=":1428572566_10" function="internal">
        <lane id=":1428572566_10_0" index="0" disallow="tram rail_urban rail rail_electric rail_fast ship" speed="7.81" length="6.07" shape="1756.71,5797.04 1757.97,5800.93 1757.75,5802.89"/>
    </edge>
    <edge id=":1428572566_11" function="internal">
        <lane id=":1428572566_11_0" index="0" disallow="tram rail_urban rail rail_electric rail_fast ship" speed="3.65" length="2.34" shape="1756.71,5797.04 1756.52,5798.47 1755.98,5799.18"/>
    </edge>
    <edge id=":1428572566_18" function="internal">
        <lane id=":1428572566_18_0" index="0" disallow="tram rail_urban rail rail_electric rail_fast ship" speed="7.81" length="8.59" shape="1757.75,5802.89 1757.61,5804.15 1755.62,5806.71 1752.00,5808.61"/>
    </edge>
    <edge id=":1428572566_19" function="internal">
        <lane id=":1428572566_19_0" index="0" disallow="tram rail_urban rail rail_electric rail_fast ship" speed="3.65" length="2.34" shape="1755.98,5799.18 1755.09,5799.18 1753.84,5798.45"/>
    </edge>
    <edge id=":1428572566_12" function="internal">
        <lane id=":1428572566_12_0" index="0" disallow="tram rail_urban rail rail_electric rail_fast ship" speed="6.27" length="9.04" shape="1750.93,5805.59 1753.16,5804.42 1754.39,5802.84 1754.62,5800.85 1753.84,5798.45"/>
    </edge>
    <edge id=":1428572566_13" function="internal">
        <lane id=":1428572566_13_0" index="0" disallow="tram rail_urban rail rail_electric rail_fast ship" speed="13.89" length="14.59" shape="1750.93,5805.59 1754.39,5804.32 1757.74,5802.98 1761.05,5801.54 1764.39,5799.97"/>
    </edge>
    <edge id=":1428572566_14" function="internal">
        <lane id=":1428572566_14_0" index="0" disallow="tram rail_urban rail rail_electric rail_fast ship" speed="8.41" length="14.61" shape="1750.93,5805.59 1754.89,5804.76 1758.24,5805.27 1760.98,5807.14 1763.12,5810.36"/>
    </edge>
    <edge id=":1428572566_15" function="internal">
        <lane id=":1428572566_15_0" index="0" disallow="tram rail_urban rail rail_electric rail_fast ship" speed="3.65" length="4.67" shape="1750.93,5805.59 1752.33,5805.95 1752.97,5806.57 1752.86,5807.46 1752.00,5808.61"/>
    </edge>
    <edge id=":1428572571_0" function="internal">
        <lane id=":1428572571_0_0" index="0" disallow="tram rail_urban rail rail_electric rail_fast ship" speed="6.53" length="9.06" shape="3010.76,5820.58 3009.35,5818.54 3007.63,5817.43 3005.59,5817.25 3003.23,5818.02"/>
    </edge>
    <edge id=":1428572571_1" function="internal">
        <lane id=":1428572571_1_0" index="0" disallow="tram rail_urban rail rail_electric rail_fast ship" speed="22.22" length="14.45" shape="3010.76,5820.58 3004.38,5807.62"/>
    </edge>
    <edge id=":1428572571_2" function="internal">
        <lane id=":1428572571_2_0" index="0" disallow="tram rail_urban rail rail_electric rail_fast ship" speed="8.00" length="5.98" shape="3010.76,5820.58 3009.54,5816.89 3009.70,5814.81"/>
    </edge>
    <edge id=":1428572571_3" function="internal">
        <lane id=":1428572571_3_0" index="0" disallow="tram rail_urban rail rail_electric rail_fast ship" speed="3.65" length="2.34" shape="3010.76,5820.58 3010.94,5819.15 3011.48,5818.44"/>
    </edge>
    <edge id=":1428572571_16" function="internal">
        <lane id=":1428572571_16_0" index="0" disallow="tram rail_urban rail rail_electric rail_fast ship" speed="8.00" length="8.23" shape="3009.70,5814.81 3009.79,5813.69 3011.53,5810.99 3014.75,5808.79"/>
    </edge>
    <edge id=":1428572571_17" function="internal">
        <lane id=":1428572571_17_0" index="0" disallow="tram rail_urban rail rail_electric rail_fast ship" speed="3.65" length="2.34" shape="3011.48,5818.44 3012.37,5818.44 3013.62,5819.16"/>
    </edge>
    <edge id=":1428572571_4" function="internal">