<?xml version="1.0" encoding="UTF-8"?>

<!-- generated on Mon Jul 27 02:43:02 2020 by Eclipse SUMO netgenerate Version 1.6.0
<configuration xmlns:xsi="http://www.w3.org/2001/XMLSchema-instance" xsi:noNamespaceSchemaLocation="http://sumo.dlr.de/xsd/netgenerateConfiguration.xsd">

    <grid_network>
        <grid value="true"/>
        <grid.number value="8"/>
        <grid.length value="60"/>
    </grid_network>

    <output>
        <output-file value="grid_TLS.net.xml"/>
    </output>

    <building_defaults>
        <default.speed value="11.111"/>
    </building_defaults>

    <tls_building>
        <tls.guess value="true"/>
    </tls_building>

</configuration>
-->

<net version="1.6" junctionCornerDetail="5" limitTurnSpeed="5.50" xmlns:xsi="http://www.w3.org/2001/XMLSchema-instance" xsi:noNamespaceSchemaLocation="http://sumo.dlr.de/xsd/net_file.xsd">

    <location netOffset="0.00,0.00" convBoundary="0.00,0.00,420.00,420.00" origBoundary="0.00,0.00,420.00,420.00" projParameter="!"/>

    <edge id=":A0_0" function="internal">
        <lane id=":A0_0_0" index="0" speed="6.08" length="7.74" shape="-1.60,3.20 -1.30,1.10 -0.40,-0.40 1.10,-1.30 3.20,-1.60"/>
    </edge>
    <edge id=":A0_1" function="internal">
        <lane id=":A0_1_0" index="0" speed="3.90" length="2.58" shape="3.20,1.60 2.50,1.70 2.00,2.00 1.70,2.50 1.60,3.20"/>
    </edge>
    <edge id=":A1_0" function="internal">
        <lane id=":A1_0_0" index="0" speed="11.11" length="14.40" shape="-1.60,67.20 -1.60,52.80"/>
    </edge>
    <edge id=":A1_1" function="internal">
        <lane id=":A1_1_0" index="0" speed="8.00" length="5.93" shape="-1.60,67.20 -1.05,63.35 0.00,61.60"/>
    </edge>
    <edge id=":A1_2" function="internal">
        <lane id=":A1_2_0" index="0" speed="3.65" length="2.34" shape="-1.60,67.20 -0.80,66.00 0.00,65.60"/>
    </edge>
    <edge id=":A1_9" function="internal">
        <lane id=":A1_9_0" index="0" speed="8.00" length="8.26" shape="0.00,61.60 0.60,60.60 3.35,58.95 7.20,58.40"/>
    </edge>
    <edge id=":A1_10" function="internal">
        <lane id=":A1_10_0" index="0" speed="3.65" length="2.34" shape="0.00,65.60 0.80,66.00 1.60,67.20"/>
    </edge>
    <edge id=":A1_3" function="internal">
        <lane id=":A1_3_0" index="0" speed="6.51" length="9.03" shape="7.20,61.60 4.75,61.95 3.00,63.00 1.95,64.75 1.60,67.20"/>
    </edge>
    <edge id=":A1_4" function="internal">
        <lane id=":A1_4_0" index="0" speed="8.00" length="14.19" shape="7.20,61.60 3.35,61.05 0.60,59.40 -1.05,56.65 -1.60,52.80"/>
    </edge>
    <edge id=":A1_5" function="internal">
        <lane id=":A1_5_0" index="0" speed="3.65" length="4.67" shape="7.20,61.60 6.00,60.80 5.60,60.00 6.00,59.20 7.20,58.40"/>
    </edge>
    <edge id=":A1_6" function="internal">
        <lane id=":A1_6_0" index="0" speed="6.51" length="9.03" shape="1.60,52.80 1.95,55.25 3.00,57.00 4.75,58.05 7.20,58.40"/>
    </edge>
    <edge id=":A1_7" function="internal">
        <lane id=":A1_7_0" index="0" speed="11.11" length="14.40" shape="1.60,52.80 1.60,67.20"/>
    </edge>
    <edge id=":A1_8" function="internal">
        <lane id=":A1_8_0" index="0" speed="3.65" length="2.34" shape="1.60,52.80 0.80,54.00 0.00,54.40"/>
    </edge>
    <edge id=":A1_11" function="internal">
        <lane id=":A1_11_0" index="0" speed="3.65" length="2.34" shape="0.00,54.40 -0.80,54.00 -1.60,52.80"/>
    </edge>
    <edge id=":A2_0" function="internal">
        <lane id=":A2_0_0" index="0" speed="11.11" length="14.40" shape="-1.60,127.20 -1.60,112.80"/>
    </edge>
    <edge id=":A2_1" function="internal">
        <lane id=":A2_1_0" index="0" speed="8.00" length="5.93" shape="-1.60,127.20 -1.05,123.35 0.00,121.60"/>
    </edge>
    <edge id=":A2_2" function="internal">
        <lane id=":A2_2_0" index="0" speed="3.65" length="2.34" shape="-1.60,127.20 -0.80,126.00 0.00,125.60"/>
    </edge>
    <edge id=":A2_9" function="internal">
        <lane id=":A2_9_0" index="0" speed="8.00" length="8.26" shape="0.00,121.60 0.60,120.60 3.35,118.95 7.20,118.40"/>
    </edge>
    <edge id=":A2_10" function="internal">
        <lane id=":A2_10_0" index="0" speed="3.65" length="2.34" shape="0.00,125.60 0.80,126.00 1.60,127.20"/>
    </edge>
    <edge id=":A2_3" function="internal">
        <lane id=":A2_3_0" index="0" speed="6.51" length="9.03" shape="7.20,121.60 4.75,121.95 3.00,123.00 1.95,124.75 1.60,127.20"/>
    </edge>
    <edge id=":A2_4" function="internal">
        <lane id=":A2_4_0" index="0" speed="8.00" length="14.19" shape="7.20,121.60 3.35,121.05 0.60,119.40 -1.05,116.65 -1.60,112.80"/>
    </edge>
    <edge id=":A2_5" function="internal">
        <lane id=":A2_5_0" index="0" speed="3.65" length="4.67" shape="7.20,121.60 6.00,120.80 5.60,120.00 6.00,119.20 7.20,118.40"/>
    </edge>
    <edge id=":A2_6" function="internal">
        <lane id=":A2_6_0" index="0" speed="6.51" length="9.03" shape="1.60,112.80 1.95,115.25 3.00,117.00 4.75,118.05 7.20,118.40"/>
    </edge>
    <edge id=":A2_7" function="internal">
        <lane id=":A2_7_0" index="0" speed="11.11" length="14.40" shape="1.60,112.80 1.60,127.20"/>
    </edge>
    <edge id=":A2_8" function="internal">
        <lane id=":A2_8_0" index="0" speed="3.65" length="2.34" shape="1.60,112.80 0.80,114.00 0.00,114.40"/>
    </edge>
    <edge id=":A2_11" function="internal">
        <lane id=":A2_11_0" index="0" speed="3.65" length="2.34" shape="0.00,114.40 -0.80,114.00 -1.60,112.80"/>
    </edge>
    <edge id=":A3_0" function="internal">
        <lane id=":A3_0_0" index="0" speed="11.11" length="14.40" shape="-1.60,187.20 -1.60,172.80"/>
    </edge>
    <edge id=":A3_1" function="internal">
        <lane id=":A3_1_0" index="0" speed="8.00" length="5.93" shape="-1.60,187.20 -1.05,183.35 0.00,181.60"/>
    </edge>
    <edge id=":A3_2" function="internal">
        <lane id=":A3_2_0" index="0" speed="3.65" length="2.34" shape="-1.60,187.20 -0.80,186.00 0.00,185.60"/>
    </edge>
    <edge id=":A3_9" function="internal">
        <lane id=":A3_9_0" index="0" speed="8.00" length="8.26" shape="0.00,181.60 0.60,180.60 3.35,178.95 7.20,178.40"/>
    </edge>
    <edge id=":A3_10" function="internal">
        <lane id=":A3_10_0" index="0" speed="3.65" length="2.34" shape="0.00,185.60 0.80,186.00 1.60,187.20"/>
    </edge>
    <edge id=":A3_3" function="internal">
        <lane id=":A3_3_0" index="0" speed="6.51" length="9.03" shape="7.20,181.60 4.75,181.95 3.00,183.00 1.95,184.75 1.60,187.20"/>
    </edge>
    <edge id=":A3_4" function="internal">
        <lane id=":A3_4_0" index="0" speed="8.00" length="14.19" shape="7.20,181.60 3.35,181.05 0.60,179.40 -1.05,176.65 -1.60,172.80"/>
    </edge>
    <edge id=":A3_5" function="internal">
        <lane id=":A3_5_0" index="0" speed="3.65" length="4.67" shape="7.20,181.60 6.00,180.80 5.60,180.00 6.00,179.20 7.20,178.40"/>
    </edge>
    <edge id=":A3_6" function="internal">
        <lane id=":A3_6_0" index="0" speed="6.51" length="9.03" shape="1.60,172.80 1.95,175.25 3.00,177.00 4.75,178.05 7.20,178.40"/>
    </edge>
    <edge id=":A3_7" function="internal">
        <lane id=":A3_7_0" index="0" speed="11.11" length="14.40" shape="1.60,172.80 1.60,187.20"/>
    </edge>
    <edge id=":A3_8" function="internal">
        <lane id=":A3_8_0" index="0" speed="3.65" length="2.34" shape="1.60,172.80 0.80,174.00 0.00,174.40"/>
    </edge>
    <edge id=":A3_11" function="internal">
        <lane id=":A3_11_0" index="0" speed="3.65" length="2.34" shape="0.00,174.40 -0.80,174.00 -1.60,172.80"/>
    </edge>
    <edge id=":A4_0" function="internal">
        <lane id=":A4_0_0" index="0" speed="11.11" length="14.40" shape="-1.60,247.20 -1.60,232.80"/>
    </edge>
    <edge id=":A4_1" function="internal">
        <lane id=":A4_1_0" index="0" speed="8.00" length="5.93" shape="-1.60,247.20 -1.05,243.35 0.00,241.60"/>
    </edge>
    <edge id=":A4_2" function="internal">
        <lane id=":A4_2_0" index="0" speed="3.65" length="2.34" shape="-1.60,247.20 -0.80,246.00 0.00,245.60"/>
    </edge>
    <edge id=":A4_9" function="internal">
        <lane id=":A4_9_0" index="0" speed="8.00" length="8.26" shape="0.00,241.60 0.60,240.60 3.35,238.95 7.20,238.40"/>
    </edge>
    <edge id=":A4_10" function="internal">
        <lane id=":A4_10_0" index="0" speed="3.65" length="2.34" shape="0.00,245.60 0.80,246.00 1.60,247.20"/>
    </edge>
    <edge id=":A4_3" function="internal">
        <lane id=":A4_3_0" index="0" speed="6.51" length="9.03" shape="7.20,241.60 4.75,241.95 3.00,243.00 1.95,244.75 1.60,247.20"/>
    </edge>
    <edge id=":A4_4" function="internal">
        <lane id=":A4_4_0" index="0" speed="8.00" length="14.19" shape="7.20,241.60 3.35,241.05 0.60,239.40 -1.05,236.65 -1.60,232.80"/>
    </edge>
    <edge id=":A4_5" function="internal">
        <lane id=":A4_5_0" index="0" speed="3.65" length="4.67" shape="7.20,241.60 6.00,240.80 5.60,240.00 6.00,239.20 7.20,238.40"/>
    </edge>
    <edge id=":A4_6" function="internal">
        <lane id=":A4_6_0" index="0" speed="6.51" length="9.03" shape="1.60,232.80 1.95,235.25 3.00,237.00 4.75,238.05 7.20,238.40"/>
    </edge>
    <edge id=":A4_7" function="internal">
        <lane id=":A4_7_0" index="0" speed="11.11" length="14.40" shape="1.60,232.80 1.60,247.20"/>
    </edge>
    <edge id=":A4_8" function="internal">
        <lane id=":A4_8_0" index="0" speed="3.65" length="2.34" shape="1.60,232.80 0.80,234.00 0.00,234.40"/>
    </edge>
    <edge id=":A4_11" function="internal">
        <lane id=":A4_11_0" index="0" speed="3.65" length="2.34" shape="0.00,234.40 -0.80,234.00 -1.60,232.80"/>
    </edge>
    <edge id=":A5_0" function="internal">
        <lane id=":A5_0_0" index="0" speed="11.11" length="14.40" shape="-1.60,307.20 -1.60,292.80"/>
    </edge>
    <edge id=":A5_1" function="internal">
        <lane id=":A5_1_0" index="0" speed="8.00" length="5.93" shape="-1.60,307.20 -1.05,303.35 -0.00,301.60"/>
    </edge>
    <edge id=":A5_2" function="internal">
        <lane id=":A5_2_0" index="0" speed="3.65" length="2.34" shape="-1.60,307.20 -0.80,306.00 0.00,305.60"/>
    </edge>
    <edge id=":A5_9" function="internal">
        <lane id=":A5_9_0" index="0" speed="8.00" length="8.26" shape="-0.00,301.60 0.60,300.60 3.35,298.95 7.20,298.40"/>
    </edge>
    <edge id=":A5_10" function="internal">
        <lane id=":A5_10_0" index="0" speed="3.65" length="2.34" shape="0.00,305.60 0.80,306.00 1.60,307.20"/>
    </edge>
    <edge id=":A5_3" function="internal">
        <lane id=":A5_3_0" index="0" speed="6.51" length="9.03" shape="7.20,301.60 4.75,301.95 3.00,303.00 1.95,304.75 1.60,307.20"/>
    </edge>
    <edge id=":A5_4" function="internal">
        <lane id=":A5_4_0" index="0" speed="8.00" length="14.19" shape="7.20,301.60 3.35,301.05 0.60,299.40 -1.05,296.65 -1.60,292.80"/>
    </edge>
    <edge id=":A5_5" function="internal">
        <lane id=":A5_5_0" index="0" speed="3.65" length="4.67" shape="7.20,301.60 6.00,300.80 5.60,300.00 6.00,299.20 7.20,298.40"/>
    </edge>
    <edge id=":A5_6" function="internal">
        <lane id=":A5_6_0" index="0" speed="6.51" length="9.03" shape="1.60,292.80 1.95,295.25 3.00,297.00 4.75,298.05 7.20,298.40"/>
    </edge>
    <edge id=":A5_7" function="internal">
        <lane id=":A5_7_0" index="0" speed="11.11" length="14.40" shape="1.60,292.80 1.60,307.20"/>
    </edge>
    <edge id=":A5_8" function="internal">
        <lane id=":A5_8_0" index="0" speed="3.65" length="2.34" shape="1.60,292.80 0.80,294.00 0.00,294.40"/>
    </edge>
    <edge id=":A5_11" function="internal">
        <lane id=":A5_11_0" index="0" speed="3.65" length="2.34" shape="0.00,294.40 -0.80,294.00 -1.60,292.80"/>
    </edge>
    <edge id=":A6_0" function="internal">
        <lane id=":A6_0_0" index="0" speed="11.11" length="14.40" shape="-1.60,367.20 -1.60,352.80"/>
    </edge>
    <edge id=":A6_1" function="internal">
        <lane id=":A6_1_0" index="0" speed="8.00" length="5.93" shape="-1.60,367.20 -1.05,363.35 -0.00,361.60"/>
    </edge>
    <edge id=":A6_2" function="internal">
        <lane id=":A6_2_0" index="0" speed="3.65" length="2.34" shape="-1.60,367.20 -0.80,366.00 0.00,365.60"/>
    </edge>
    <edge id=":A6_9" function="internal">
        <lane id=":A6_9_0" index="0" speed="8.00" length="8.26" shape="-0.00,361.60 0.60,360.60 3.35,358.95 7.20,358.40"/>
    </edge>
    <edge id=":A6_10" function="internal">
        <lane id=":A6_10_0" index="0" speed="3.65" length="2.34" shape="0.00,365.60 0.80,366.00 1.60,367.20"/>
    </edge>
    <edge id=":A6_3" function="internal">
        <lane id=":A6_3_0" index="0" speed="6.51" length="9.03" shape="7.20,361.60 4.75,361.95 3.00,363.00 1.95,364.75 1.60,367.20"/>
    </edge>
    <edge id=":A6_4" function="internal">
        <lane id=":A6_4_0" index="0" speed="8.00" length="14.19" shape="7.20,361.60 3.35,361.05 0.60,359.40 -1.05,356.65 -1.60,352.80"/>
    </edge>
    <edge id=":A6_5" function="internal">
        <lane id=":A6_5_0" index="0" speed="3.65" length="4.67" shape="7.20,361.60 6.00,360.80 5.60,360.00 6.00,359.20 7.20,358.40"/>
    </edge>
    <edge id=":A6_6" function="internal">
        <lane id=":A6_6_0" index="0" speed="6.51" length="9.03" shape="1.60,352.80 1.95,355.25 3.00,357.00 4.75,358.05 7.20,358.40"/>
    </edge>
    <edge id=":A6_7" function="internal">
        <lane id=":A6_7_0" index="0" speed="11.11" length="14.40" shape="1.60,352.80 1.60,367.20"/>
    </edge>
    <edge id=":A6_8" function="internal">
        <lane id=":A6_8_0" index="0" speed="3.65" length="2.34" shape="1.60,352.80 0.80,354.00 0.00,354.40"/>
    </edge>
    <edge id=":A6_11" function="internal">
        <lane id=":A6_11_0" index="0" speed="3.65" length="2.34" shape="0.00,354.40 -0.80,354.00 -1.60,352.80"/>
    </edge>
    <edge id=":A7_0" function="internal">
        <lane id=":A7_0_0" index="0" speed="6.08" length="7.74" shape="3.20,421.60 1.10,421.30 -0.40,420.40 -1.30,418.90 -1.60,416.80"/>
    </edge>
    <edge id=":A7_1" function="internal">
        <lane id=":A7_1_0" index="0" speed="3.90" length="2.58" shape="1.60,416.80 1.70,417.50 2.00,418.00 2.50,418.30 3.20,418.40"/>
    </edge>
    <edge id=":B0_0" function="internal">
        <lane id=":B0_0_0" index="0" speed="6.51" length="9.03" shape="58.40,7.20 58.05,4.75 57.00,3.00 55.25,1.95 52.80,1.60"/>
    </edge>
    <edge id=":B0_1" function="internal">
        <lane id=":B0_1_0" index="0" speed="8.00" length="14.19" shape="58.40,7.20 58.95,3.35 60.60,0.60 63.35,-1.05 67.20,-1.60"/>
    </edge>
    <edge id=":B0_2" function="internal">
        <lane id=":B0_2_0" index="0" speed="3.65" length="4.67" shape="58.40,7.20 59.20,6.00 60.00,5.60 60.80,6.00 61.60,7.20"/>
    </edge>
    <edge id=":B0_3" function="internal">
        <lane id=":B0_3_0" index="0" speed="6.51" length="9.03" shape="67.20,1.60 64.75,1.95 63.00,3.00 61.95,4.75 61.60,7.20"/>
    </edge>
    <edge id=":B0_4" function="internal">
        <lane id=":B0_4_0" index="0" speed="11.11" length="14.40" shape="67.20,1.60 52.80,1.60"/>
    </edge>
    <edge id=":B0_5" function="internal">
        <lane id=":B0_5_0" index="0" speed="3.65" length="2.34" shape="67.20,1.60 66.00,0.80 65.60,0.00"/>
    </edge>
    <edge id=":B0_9" function="internal">
        <lane id=":B0_9_0" index="0" speed="3.65" length="2.34" shape="65.60,0.00 66.00,-0.80 67.20,-1.60"/>
    </edge>
    <edge id=":B0_6" function="internal">
        <lane id=":B0_6_0" index="0" speed="11.11" length="14.40" shape="52.80,-1.60 67.20,-1.60"/>
    </edge>
    <edge id=":B0_7" function="internal">
        <lane id=":B0_7_0" index="0" speed="8.00" length="5.93" shape="52.80,-1.60 56.65,-1.05 58.40,0.00"/>
    </edge>
    <edge id=":B0_8" function="internal">
        <lane id=":B0_8_0" index="0" speed="3.65" length="2.34" shape="52.80,-1.60 54.00,-0.80 54.40,0.00"/>
    </edge>
    <edge id=":B0_10" function="internal">
        <lane id=":B0_10_0" index="0" speed="8.00" length="8.26" shape="58.40,0.00 59.40,0.60 61.05,3.35 61.60,7.20"/>
    </edge>
    <edge id=":B0_11" function="internal">
        <lane id=":B0_11_0" index="0" speed="3.65" length="2.34" shape="54.40,0.00 54.00,0.80 52.80,1.60"/>
    </edge>
    <edge id=":B1_0" function="internal">
        <lane id=":B1_0_0" index="0" speed="6.51" length="9.03" shape="58.40,67.20 58.05,64.75 57.00,63.00 55.25,61.95 52.80,61.60"/>
    </edge>
    <edge id=":B1_1" function="internal">
        <lane id=":B1_1_0" index="0" speed="11.11" length="14.40" shape="58.40,67.20 58.40,52.80"/>
    </edge>
    <edge id=":B1_2" function="internal">
        <lane id=":B1_2_0" index="0" speed="8.00" length="5.93" shape="58.40,67.20 58.95,63.35 60.00,61.60"/>
    </edge>
    <edge id=":B1_3" function="internal">
        <lane id=":B1_3_0" index="0" speed="3.65" length="2.34" shape="58.40,67.20 59.20,66.00 60.00,65.60"/>
    </edge>
    <edge id=":B1_16" function="internal">
        <lane id=":B1_16_0" index="0" speed="8.00" length="8.26" shape="60.00,61.60 60.60,60.60 63.35,58.95 67.20,58.40"/>
    </edge>
    <edge id=":B1_17" function="internal">
        <lane id=":B1_17_0" index="0" speed="3.65" length="2.34" shape="60.00,65.60 60.80,66.00 61.60,67.20"/>
    </edge>
    <edge id=":B1_4" function="internal">
        <lane id=":B1_4_0" index="0" speed="6.51" length="9.03" shape="67.20,61.60 64.75,61.95 63.00,63.00 61.95,64.75 61.60,67.20"/>
    </edge>
    <edge id=":B1_5" function="internal">
        <lane id=":B1_5_0" index="0" speed="11.11" length="14.40" shape="67.20,61.60 52.80,61.60"/>
    </edge>
    <edge id=":B1_6" function="internal">
        <lane id=":B1_6_0" index="0" speed="8.00" length="14.19" shape="67.20,61.60 63.35,61.05 60.60,59.40 58.95,56.65 58.40,52.80"/>
    </edge>
    <edge id=":B1_7" function="internal">
        <lane id=":B1_7_0" index="0" speed="3.65" length="4.67" shape="67.20,61.60 66.00,60.80 65.60,60.00 66.00,59.20 67.20,58.40"/>
    </edge>
    <edge id=":B1_8" function="internal">
        <lane id=":B1_8_0" index="0" speed="6.51" length="9.03" shape="61.60,52.80 61.95,55.25 63.00,57.00 64.75,58.05 67.20,58.40"/>
    </edge>
    <edge id=":B1_9" function="internal">
        <lane id=":B1_9_0" index="0" speed="11.11" length="14.40" shape="61.60,52.80 61.60,67.20"/>
    </edge>
    <edge id=":B1_10" function="internal">
        <lane id=":B1_10_0" index="0" speed="8.00" length="5.93" shape="61.60,52.80 61.05,56.65 60.00,58.40"/>
    </edge>
    <edge id=":B1_11" function="internal">
        <lane id=":B1_11_0" index="0" speed="3.65" length="2.34" shape="61.60,52.80 60.80,54.00 60.00,54.40"/>
    </edge>
    <edge id=":B1_18" function="internal">
        <lane id=":B1_18_0" index="0" speed="8.00" length="8.26" shape="60.00,58.40 59.40,59.40 56.65,61.05 52.80,61.60"/>
    </edge>
    <edge id=":B1_19" function="internal">
        <lane id=":B1_19_0" index="0" speed="3.65" length="2.34" shape="60.00,54.40 59.20,54.00 58.40,52.80"/>
    </edge>
    <edge id=":B1_12" function="internal">
        <lane id=":B1_12_0" index="0" speed="6.51" length="9.03" shape="52.80,58.40 55.25,58.05 57.00,57.00 58.05,55.25 58.40,52.80"/>
    </edge>
    <edge id=":B1_13" function="internal">
        <lane id=":B1_13_0" index="0" speed="11.11" length="14.40" shape="52.80,58.40 67.20,58.40"/>
    </edge>
    <edge id=":B1_14" function="internal">
        <lane id=":B1_14_0" index="0" speed="8.00" length="14.19" shape="52.80,58.40 56.65,58.95 59.40,60.60 61.05,63.35 61.60,67.20"/>
    </edge>
    <edge id=":B1_15" function="internal">
        <lane id=":B1_15_0" index="0" speed="3.65" length="4.67" shape="52.80,58.40 54.00,59.20 54.40,60.00 54.00,60.80 52.80,61.60"/>
    </edge>
    <edge id=":B2_0" function="internal">
        <lane id=":B2_0_0" index="0" speed="6.51" length="9.03" shape="58.40,127.20 58.05,124.75 57.00,123.00 55.25,121.95 52.80,121.60"/>
    </edge>
    <edge id=":B2_1" function="internal">
        <lane id=":B2_1_0" index="0" speed="11.11" length="14.40" shape="58.40,127.20 58.40,112.80"/>
    </edge>
    <edge id=":B2_2" function="internal">
        <lane id=":B2_2_0" index="0" speed="8.00" length="5.93" shape="58.40,127.20 58.95,123.35 60.00,121.60"/>
    </edge>
    <edge id=":B2_3" function="internal">
        <lane id=":B2_3_0" index="0" speed="3.65" length="2.34" shape="58.40,127.20 59.20,126.00 60.00,125.60"/>
    </edge>
    <edge id=":B2_16" function="internal">
        <lane id=":B2_16_0" index="0" speed="8.00" length="8.26" shape="60.00,121.60 60.60,120.60 63.35,118.95 67.20,118.40"/>
    </edge>
    <edge id=":B2_17" function="internal">
        <lane id=":B2_17_0" index="0" speed="3.65" length="2.34" shape="60.00,125.60 60.80,126.00 61.60,127.20"/>
    </edge>
    <edge id=":B2_4" function="internal">
        <lane id=":B2_4_0" index="0" speed="6.51" length="9.03" shape="67.20,121.60 64.75,121.95 63.00,123.00 61.95,124.75 61.60,127.20"/>
    </edge>
    <edge id=":B2_5" function="internal">
        <lane id=":B2_5_0" index="0" speed="11.11" length="14.40" shape="67.20,121.60 52.80,121.60"/>
    </edge>
    <edge id=":B2_6" function="internal">
        <lane id=":B2_6_0" index="0" speed="8.00" length="14.19" shape="67.20,121.60 63.35,121.05 60.60,119.40 58.95,116.65 58.40,112.80"/>
    </edge>
    <edge id=":B2_7" function="internal">
        <lane id=":B2_7_0" index="0" speed="3.65" length="4.67" shape="67.20,121.60 66.00,120.80 65.60,120.00 66.00,119.20 67.20,118.40"/>
    </edge>
    <edge id=":B2_8" function="internal">
        <lane id=":B2_8_0" index="0" speed="6.51" length="9.03" shape="61.60,112.80 61.95,115.25 63.00,117.00 64.75,118.05 67.20,118.40"/>
    </edge>
    <edge id=":B2_9" function="internal">
        <lane id=":B2_9_0" index="0" speed="11.11" length="14.40" shape="61.60,112.80 61.60,127.20"/>
    </edge>
    <edge id=":B2_10" function="internal">
        <lane id=":B2_10_0" index="0" speed="8.00" length="5.93" shape="61.60,112.80 61.05,116.65 60.00,118.40"/>
    </edge>
    <edge id=":B2_11" function="internal">
        <lane id=":B2_11_0" index="0" speed="3.65" length="2.34" shape="61.60,112.80 60.80,114.00 60.00,114.40"/>
    </edge>
    <edge id=":B2_18" function="internal">
        <lane id=":B2_18_0" index="0" speed="8.00" length="8.26" shape="60.00,118.40 59.40,119.40 56.65,121.05 52.80,121.60"/>
    </edge>
    <edge id=":B2_19" function="internal">
        <lane id=":B2_19_0" index="0" speed="3.65" length="2.34" shape="60.00,114.40 59.20,114.00 58.40,112.80"/>
    </edge>
    <edge id=":B2_12" function="internal">
        <lane id=":B2_12_0" index="0" speed="6.51" length="9.03" shape="52.80,118.40 55.25,118.05 57.00,117.00 58.05,115.25 58.40,112.80"/>
    </edge>
    <edge id=":B2_13" function="internal">
        <lane id=":B2_13_0" index="0" speed="11.11" length="14.40" shape="52.80,118.40 67.20,118.40"/>
    </edge>
    <edge id=":B2_14" function="internal">
        <lane id=":B2_14_0" index="0" speed="8.00" length="14.19" shape="52.80,118.40 56.65,118.95 59.40,120.60 61.05,123.35 61.60,127.20"/>
    </edge>
    <edge id=":B2_15" function="internal">
        <lane id=":B2_15_0" index="0" speed="3.65" length="4.67" shape="52.80,118.40 54.00,119.20 54.40,120.00 54.00,120.80 52.80,121.60"/>
    </edge>
    <edge id=":B3_0" function="internal">
        <lane id=":B3_0_0" index="0" speed="6.51" length="9.03" shape="58.40,187.20 58.05,184.75 57.00,183.00 55.25,181.95 52.80,181.60"/>
    </edge>
    <edge id=":B3_1" function="internal">
        <lane id=":B3_1_0" index="0" speed="11.11" length="14.40" shape="58.40,187.20 58.40,172.80"/>
    </edge>
    <edge id=":B3_2" function="internal">
        <lane id=":B3_2_0" index="0" speed="8.00" length="5.93" shape="58.40,187.20 58.95,183.35 60.00,181.60"/>
    </edge>
    <edge id=":B3_3" function="internal">
        <lane id=":B3_3_0" index="0" speed="3.65" length="2.34" shape="58.40,187.20 59.20,186.00 60.00,185.60"/>
    </edge>
    <edge id=":B3_16" function="internal">
        <lane id=":B3_16_0" index="0" speed="8.00" length="8.26" shape="60.00,181.60 60.60,180.60 63.35,178.95 67.20,178.40"/>
    </edge>
    <edge id=":B3_17" function="internal">
        <lane id=":B3_17_0" index="0" speed="3.65" length="2.34" shape="60.00,185.60 60.80,186.00 61.60,187.20"/>
    </edge>
    <edge id=":B3_4" function="internal">
        <lane id=":B3_4_0" index="0" speed="6.51" length="9.03" shape="67.20,181.60 64.75,181.95 63.00,183.00 61.95,184.75 61.60,187.20"/>
    </edge>
    <edge id=":B3_5" function="internal">
        <lane id=":B3_5_0" index="0" speed="11.11" length="14.40" shape="67.20,181.60 52.80,181.60"/>
    </edge>
    <edge id=":B3_6" function="internal">
        <lane id=":B3_6_0" index="0" speed="8.00" length="14.19" shape="67.20,181.60 63.35,181.05 60.60,179.40 58.95,176.65 58.40,172.80"/>
    </edge>
    <edge id=":B3_7" function="internal">
        <lane id=":B3_7_0" index="0" speed="3.65" length="4.67" shape="67.20,181.60 66.00,180.80 65.60,180.00 66.00,179.20 67.20,178.40"/>
    </edge>
    <edge id=":B3_8" function="internal">
        <lane id=":B3_8_0" index="0" speed="6.51" length="9.03" shape="61.60,172.80 61.95,175.25 63.00,177.00 64.75,178.05 67.20,178.40"/>
    </edge>
    <edge id=":B3_9" function="internal">
        <lane id=":B3_9_0" index="0" speed="11.11" length="14.40" shape="61.60,172.80 61.60,187.20"/>
    </edge>
    <edge id=":B3_10" function="internal">
        <lane id=":B3_10_0" index="0" speed="8.00" length="5.93" shape="61.60,172.80 61.05,176.65 60.00,178.40"/>
    </edge>
    <edge id=":B3_11" function="internal">
        <lane id=":B3_11_0" index="0" speed="3.65" length="2.34" shape="61.60,172.80 60.80,174.00 60.00,174.40"/>
    </edge>
    <edge id=":B3_18" function="internal">
        <lane id=":B3_18_0" index="0" speed="8.00" length="8.26" shape="60.00,178.40 59.40,179.40 56.65,181.05 52.80,181.60"/>
    </edge>
    <edge id=":B3_19" function="internal">
        <lane id=":B3_19_0" index="0" speed="3.65" length="2.34" shape="60.00,174.40 59.20,174.00 58.40,172.80"/>
    </edge>
    <edge id=":B3_12" function="internal">
        <lane id=":B3_12_0" index="0" speed="6.51" length="9.03" shape="52.80,178.40 55.25,178.05 57.00,177.00 58.05,175.25 58.40,172.80"/>
    </edge>
    <edge id=":B3_13" function="internal">
        <lane id=":B3_13_0" index="0" speed="11.11" length="14.40" shape="52.80,178.40 67.20,178.40"/>
    </edge>
    <edge id=":B3_14" function="internal">
        <lane id=":B3_14_0" index="0" speed="8.00" length="14.19" shape="52.80,178.40 56.65,178.95 59.40,180.60 61.05,183.35 61.60,187.20"/>
    </edge>
    <edge id=":B3_15" function="internal">
        <lane id=":B3_15_0" index="0" speed="3.65" length="4.67" shape="52.80,178.40 54.00,179.20 54.40,180.00 54.00,180.80 52.80,181.60"/>
    </edge>
    <edge id=":B4_0" function="internal">
        <lane id=":B4_0_0" index="0" speed="6.51" length="9.03" shape="58.40,247.20 58.05,244.75 57.00,243.00 55.25,241.95 52.80,241.60"/>
    </edge>
    <edge id=":B4_1" function="internal">
        <lane id=":B4_1_0" index="0" speed="11.11" length="14.40" shape="58.40,247.20 58.40,232.80"/>
    </edge>
    <edge id=":B4_2" function="internal">
        <lane id=":B4_2_0" index="0" speed="8.00" length="5.93" shape="58.40,247.20 58.95,243.35 60.00,241.60"/>
    </edge>
    <edge id=":B4_3" function="internal">
        <lane id=":B4_3_0" index="0" speed="3.65" length="2.34" shape="58.40,247.20 59.20,246.00 60.00,245.60"/>
    </edge>
    <edge id=":B4_16" function="internal">
        <lane id=":B4_16_0" index="0" speed="8.00" length="8.26" shape="60.00,241.60 60.60,240.60 63.35,238.95 67.20,238.40"/>
    </edge>
    <edge id=":B4_17" function="internal">
        <lane id=":B4_17_0" index="0" speed="3.65" length="2.34" shape="60.00,245.60 60.80,246.00 61.60,247.20"/>
    </edge>
    <edge id=":B4_4" function="internal">
        <lane id=":B4_4_0" index="0" speed="6.51" length="9.03" shape="67.20,241.60 64.75,241.95 63.00,243.00 61.95,244.75 61.60,247.20"/>
    </edge>
    <edge id=":B4_5" function="internal">
        <lane id=":B4_5_0" index="0" speed="11.11" length="14.40" shape="67.20,241.60 52.80,241.60"/>
    </edge>
    <edge id=":B4_6" function="internal">
        <lane id=":B4_6_0" index="0" speed="8.00" length="14.19" shape="67.20,241.60 63.35,241.05 60.60,239.40 58.95,236.65 58.40,232.80"/>
    </edge>
    <edge id=":B4_7" function="internal">
        <lane id=":B4_7_0" index="0" speed="3.65" length="4.67" shape="67.20,241.60 66.00,240.80 65.60,240.00 66.00,239.20 67.20,238.40"/>
    </edge>
    <edge id=":B4_8" function="internal">
        <lane id=":B4_8_0" index="0" speed="6.51" length="9.03" shape="61.60,232.80 61.95,235.25 63.00,237.00 64.75,238.05 67.20,238.40"/>
    </edge>
    <edge id=":B4_9" function="internal">
        <lane id=":B4_9_0" index="0" speed="11.11" length="14.40" shape="61.60,232.80 61.60,247.20"/>
    </edge>
    <edge id=":B4_10" function="internal">
        <lane id=":B4_10_0" index="0" speed="8.00" length="5.93" shape="61.60,232.80 61.05,236.65 60.00,238.40"/>
    </edge>
    <edge id=":B4_11" function="internal">
        <lane id=":B4_11_0" index="0" speed="3.65" length="2.34" shape="61.60,232.80 60.80,234.00 60.00,234.40"/>
    </edge>
    <edge id=":B4_18" function="internal">
        <lane id=":B4_18_0" index="0" speed="8.00" length="8.26" shape="60.00,238.40 59.40,239.40 56.65,241.05 52.80,241.60"/>
    </edge>
    <edge id=":B4_19" function="internal">
        <lane id=":B4_19_0" index="0" speed="3.65" length="2.34" shape="60.00,234.40 59.20,234.00 58.40,232.80"/>
    </edge>
    <edge id=":B4_12" function="internal">
        <lane id=":B4_12_0" index="0" speed="6.51" length="9.03" shape="52.80,238.40 55.25,238.05 57.00,237.00 58.05,235.25 58.40,232.80"/>
    </edge>
    <edge id=":B4_13" function="internal">
        <lane id=":B4_13_0" index="0" speed="11.11" length="14.40" shape="52.80,238.40 67.20,238.40"/>
    </edge>
    <edge id=":B4_14" function="internal">