<?xml version="1.0" encoding="UTF-8"?>

<!-- generated on 06/08/21 00:25:20 by Eclipse SUMO duarouter Version 1.8.0
<configuration xmlns:xsi="http://www.w3.org/2001/XMLSchema-instance" xsi:noNamespaceSchemaLocation="http://sumo.dlr.de/xsd/duarouterConfiguration.xsd">

    <input>
        <net-file value="C:\Users\shuto\workspace\ns-3-allinone\ns3.30\sumo\tools\2021-06-08-00-24-48\osm.net.xml"/>
        <route-files value="C:\Users\shuto\workspace\ns-3-allinone\ns3.30\sumo\tools\2021-06-08-00-24-48\osm.passenger.trips.xml"/>
    </input>

    <output>
        <output-file value="routes.rou.xml"/>
        <alternatives-output value="routes.rou.alt.xml"/>
    </output>

    <time>
        <begin value="0"/>
        <end value="3600.0"/>
    </time>

    <report>
        <no-warnings value="true"/>
        <ignore-errors value="true"/>
        <no-step-log value="true"/>
    </report>

</configuration>
-->

<routes xmlns:xsi="http://www.w3.org/2001/XMLSchema-instance" xsi:noNamespaceSchemaLocation="http://sumo.dlr.de/xsd/routes_file.xsd">
    <vType id="veh_passenger" vClass="passenger"/>
    <vehicle id="veh0" type="veh_passenger" depart="0.00" departLane="best">
        <route edges="32062719#6 273924628#3 273924628#4 273924628#5 273924628#6 273924628#7 273924628#10 174762072#0 174762072#1 465069434#1 465069434#4 465069434#7 465069434#10 772134675#4 772134675#5 28957185#4 -31714524"/>
    </vehicle>
    <vehicle id="veh1" type="veh_passenger" depart="3.32" departLane="best">
        <route edges="256457175#3 256457175#4 256457175#5 256457175#6 465069436#1 465069436#2 174762085#1 174762085#2 174762085#3 174762085#4 174762085#5 174762085#6 174762085#9"/>
    </vehicle>
    <vehicle id="veh2" type="veh_passenger" depart="6.65" departLane="best">
        <route edges="41204044#7 41204044#8 903981751#3 903981751#6 903981751#7 903981751#8 903981751#9 903981751#10 903981751#11 273924628#0 273924628#1 273924628#2 273924628#3 34634718#3 34634718#4 34634718#5 34634718#6"/>
    </vehicle>
    <vehicle id="veh3" type="veh_passenger" depart="9.97" departLane="best">
        <route edges="66705748#2 66705748#3 772134673#1 772134673#2 160731913#4 160731913#5 160731913#6 160731913#7 160731913#11 160731913#12 160731913#13 160731913#14 160731913#15 160731913#16 160731913#17 160731913#18 160731913#19 160731913#20 160731913#21 -461646073#1 461646074#0 -461646074#0"/>
    </vehicle>
    <vehicle id="veh5" type="veh_passenger" depart="16.61" departLane="best" departSpeed="max">
        <route edges="202548488#0 202548488#3 256838382#6 256838382#7 256838382#11 256838382#12 256838382#13 256838382#14 256838382#15 256838382#16 256838382#17 256838382#18 30418924#4 30418924#5 30418924#6"/>
    </vehicle>
    <vehicle id="veh6" type="veh_passenger" depart="19.94" departLane="best">
        <route edges="-31714535 256449138#4 256449138#5 465069431#10 465069431#13 465069431#16 465069436#1 465069436#2 273924625#1 273924625#4 273924625#5 273924625#6 34634718#3 34634718#4 34634718#5 34634718#6 34634718#7 31714691#19 31714691#20 -162566122 162566122"/>
    </vehicle>
    <vehicle id="veh7" type="veh_passenger" depart="23.26" departLane="best">
        <route edges="33884439#1 31714691#13 31714691#14 33884442#2 33884442#3 33884442#4 273924628#6 359278534#1 359278534#2 31714632#17 31714632#18"/>
    </vehicle>
    <vehicle id="veh8" type="veh_passenger" depart="26.58" departLane="best">
        <route edges="202548488#3 202548488#4 160731913#13 160731913#14 160731913#15 160731913#16 160731913#17 202548515#4 202548515#5 34634718#0 34634718#1 34634718#3 34634718#4 34634718#5 34634718#6 34634718#7 31714691#19 31714691#20 31714691#21 31714691#22 32062719#4"/>
    </vehicle>
    <vehicle id="veh9" type="veh_passenger" depart="29.91" departLane="best">
        <route edges="462356798#24 256457175#2 256457175#3 256457175#4 256457175#5 256457175#6 465069436#1 465069436#2 273924625#1 273924625#4 273924625#5 273924625#6 34634718#3 34634718#4 34634718#5 34634718#6 34634718#7 31714691#19 31714691#20 -162566122"/>
    </vehicle>
    <vehicle id="veh12" type="veh_passenger" depart="39.88" departLane="best">
        <route edges="-461646077#0 256843852#3 753485944#1 753485944#4 753485944#6 753485944#9 753485944#10 753485944#11 385665653 273924626#0 273924626#1 273924626#2 273924626#3 -461646082#3 -461646082#2 -461646082#1"/>
    </vehicle>
    <vehicle id="veh13" type="veh_passenger" depart="43.20" departLane="best">
        <route edges="465069439#0 465069439#1 465069439#2 380083522#0 380083522#1 380083522#3 465069431#1 465069431#4 465069431#7 465069431#10 465069431#13 465069431#16 465069436#1 465069436#2 273924625#1 273924625#4 33884442#6"/>
    </vehicle>
    <vehicle id="veh14" type="veh_passenger" depart="46.52" departLane="best">
        <route edges="462356798#2 462356798#3 462356798#4 462356798#5 462356798#6 462356798#8 462356798#9 462356798#10 462356798#11 462356798#12 461646073#0 461646073#1"/>
    </vehicle>
    <vehicle id="veh15" type="veh_passenger" depart="49.84" departLane="best" departSpeed="max">
        <route edges="30175871#0 31714691#2 31714691#3 31714691#4 31714691#5 31714691#6 31714691#7 31714691#8 31714691#9 31714691#10 31714691#12 31714691#13 31714691#14 31714691#15 31714691#17 31714691#18 -34634718#7 -34634718#6 -34634718#5 -34634718#4 -34634718#3 273924625#7 273924625#8 273924625#9 273924625#10 385665653 273924626#0 273924626#1 273924626#2 273924626#3 273924626#6 273924626#8 273924626#9 531353909#0 531353909#1 903981749#0 903981749#7"/>
    </vehicle>
    <vehicle id="veh16" type="veh_passenger" depart="53.17" departLane="best">
        <route edges="465069432#4 28957185#7 28578166#6 28578166#7 28578166#8 28578166#9 28578166#10 28578166#11 28578166#12 380083522#3 465069431#1 465069431#4 465069431#7 465069431#10 465069431#13 465069431#16 465069436#1 465069436#2 273924625#1 273924625#4 273924625#5 273924625#6 273924625#7 273924625#8 34634616#0 33884450#5"/>
    </vehicle>
    <vehicle id="veh17" type="veh_passenger" depart="56.49" departLane="best">
        <route edges="548925358#0 462356798#15 202548515#5 34634718#0 34634718#1 34634718#3 34634718#4 34634718#5 34634718#6 34634718#7 31714691#19 31714691#20 31714691#21 31714691#22 31714691#23 31714691#24 31714691#25 31714691#27 31714691#28 31714691#29 31714691#30 31714691#31"/>
    </vehicle>
    <vehicle id="veh18" type="veh_passenger" depart="59.81" departLane="best">
        <route edges="34634718#8 -34634718#8 31714691#19 31714691#20 31714691#21 31714691#22 31714691#23 31714691#24 31714691#25 31714691#27 31714691#28 -31714691#28"/>
    </vehicle>
    <vehicle id="veh19" type="veh_passenger" depart="63.14" departLane="best" departSpeed="max">
        <route edges="202548515#0 256838382#1 256838382#2 256838382#3 256838382#4 256838382#5 256838382#6 256838382#7 256838382#11 256838382#12 256838382#13 256838382#14 256838382#15 256838382#16"/>
    </vehicle>
    <vehicle id="veh21" type="veh_passenger" depart="69.78" departLane="best">
        <route edges="-461646082#10 462356798#3 462356798#4 462356798#5 462356798#6 462356798#8 462356798#9 462356798#10 462356798#11 462356798#12 462356798#13 462356798#14 462356798#15 462356798#16 462356798#17 462356798#18 462356798#19 462356798#23 462356798#24 256457175#2 256457175#3 256464040#3"/>
    </vehicle>
    <vehicle id="veh22" type="veh_passenger" depart="73.11" departLane="best" departSpeed="max">
        <route edges="32062719#0 32062719#3 31714691#23 31714691#24 31714691#25 26694547#4 26694547#7 26694547#8 268366803#0 268366803#1 268366803#2 273924628#0"/>
    </vehicle>
    <vehicle id="veh23" type="veh_passenger" depart="76.43" departLane="best">
        <route edges="256449138#3 256449138#4 256449138#5 256449138#9 772134674#1 772134673#1 772134673#2 772134673#3 772134673#4"/>
    </vehicle>
    <vehicle id="veh24" type="veh_passenger" depart="79.75" departLane="best" departSpeed="max">
        <route edges="33884439#0 33884439#1 31714691#13 31714691#14 31714691#15 31714691#17 31714691#18 31714691#19 31714691#20 31714691#21 33884444#0 33884444#1"/>
    </vehicle>
    <vehicle id="veh25" type="veh_passenger" depart="83.07" departLane="best">
        <route edges="160731913#11 160731913#12 160731913#13 160731913#14 160731913#15 160731913#16 160731913#17 160731913#18 160731913#19 160731913#20 160731913#21 -461646073#1 461646073#1"/>
    </vehicle>
    <vehicle id="veh26" type="veh_passenger" depart="86.40" departLane="best">
        <route edges="117159129#3 461646082#3 903981751#6 903981751#7 903981751#8 903981751#9 903981751#10 903981751#11 273924628#0 273924628#1 273924628#2 273924628#3 273924628#4 273924628#5 273924628#6"/>
    </vehicle>
    <vehicle id="veh27" type="veh_passenger" depart="89.72" departLane="best">
        <route edges="903981751#8 903981751#9 903981751#10 753485944#11 753485944#12 753485944#13 753485944#14 753485944#17 -31714691#25 -31714691#24 34634616#3"/>
    </vehicle>
    <vehicle id="veh28" type="veh_passenger" depart="93.04" departLane="best">
        <route edges="30418925#1 31714691#3 256449138#1 256449138#2 256449138#3 256449138#4 256449138#5 256449138#9 772134674#1 772134673#1 370673861#0"/>
    </vehicle>
    <vehicle id="veh29" type="veh_passenger" depart="96.37" departLane="best">
        <route edges="465069437#2 103393229#22 28957176#0 28957176#1 465069431#16 465069436#1 465069436#2 273924625#1 273924625#4 273924625#5 273924625#6 273924625#7 273924625#8 273924625#9 273924625#10 385665653 273924626#0 273924626#1 273924626#2 273924626#3 461646082#7 461646082#8 461646082#9 462356798#3"/>
    </vehicle>
    <vehicle id="veh30" type="veh_passenger" depart="99.69" departLane="best" departSpeed="max">
        <route edges="202548515#0 202548515#3 202548515#4 202548515#5 34634718#0 34634718#1 34634718#3 34634718#4 34634718#5 34634718#6 34634718#7 -31714691#18 -31714691#17 -31714691#15 -31714691#14"/>
    </vehicle>
    <vehicle id="veh31" type="veh_passenger" depart="103.01" departLane="best" departSpeed="max">
        <route edges="256843852#0 907638075#0 907638075#1 907638075#3 907638076#1 907638076#2 256838382#1 256838382#2 256838382#3 256838382#4 256838382#5 256838382#6 256838382#7 297864033#18 297864033#21 462356798#23 462356798#24 256457175#2 256457175#3 256457175#4"/>
    </vehicle>
    <vehicle id="veh32" type="veh_passenger" depart="106.34" departLane="best">
        <route edges="174762085#5 -31714403#1 31714417 -31714691#9 -31714691#8 -31714691#7 -31714691#6 -31714691#5 -31714691#4 256449138#1 256449138#2 256449138#3 256449138#4 256449138#5 256449138#9 772134674#1 772134673#1 772134673#2 772134673#3 772134673#4 772134673#5 772134673#6 772134673#7"/>
    </vehicle>
    <vehicle id="veh33" type="veh_passenger" depart="109.66" departLane="best" departSpeed="max">
        <route edges="600354682#0 600354682#3 600354682#4 600354682#5 600354682#6 160731913#7 160731913#11 160731913#12 160731913#13 160731913#14 160731913#15 160731913#16 160731913#17 202548515#4 202548515#5 34634718#0 34634718#1 273924625#7 273924625#8 273924625#9 273924625#10 385665653 273924626#0 273924626#1 103393228#0 103393228#1 103393228#2 103393229#5 103393229#6 103393229#7 26694547#7"/>
    </vehicle>
    <vehicle id="veh34" type="veh_passenger" depart="112.98" departLane="best" departSpeed="max">
        <route edges="33884442#0 33884442#1 31714691#15 31714691#17 31714691#18 -34634718#7 -34634718#6 -34634718#5 -34634718#4 -34634718#3 273924625#7 273924625#8 273924625#9 273924625#10 385665653 273924632#0 273924632#1 273924632#2 273924632#5 273924632#7 273924632#10 273924632#13 273924632#14"/>
    </vehicle>
    <vehicle id="veh35" type="veh_passenger" depart="116.30" departLane="best">
        <route edges="753485944#12 753485944#13 753485944#14 103393229#9 103393229#10 103393229#11 32062719#5 32062719#6 273924628#3 273924628#4 273924628#5 273924628#6 273924628#7 273924628#10 174762072#0 174762072#1 465069437#1 28957179#9"/>
    </vehicle>
    <vehicle id="veh36" type="veh_passenger" depart="119.63" departLane="best">
        <route edges="256449138#1 31714493 -28957175#0 31714691#6 31714691#7 31714691#8 31714691#9 31714691#10 20927292#4"/>
    </vehicle>
    <vehicle id="veh37" type="veh_passenger" depart="122.95" departLane="best" departSpeed="max">
        <route edges="30644771#0 30644771#3 256838382#14 256838382#15 256838382#16 268192646#2 268192646#3 268192646#4 268192646#5 268192646#6 268192646#7 772134682#1 465069434#7 256449138#9"/>
    </vehicle>
    <vehicle id="veh38" type="veh_passenger" depart="126.27" departLane="best">
        <route edges="31714632#22 256457175#5 256457175#6 465069436#1 465069436#2 273924625#1 273924625#4 273924625#5 273924625#6 34634718#3 34634718#4 34634718#5 34634718#6 34634718#7 31714691#19 31714691#20 31714691#21 31714691#22 31714691#23 31714691#24 31714691#25 753485944#20"/>
    </vehicle>
    <vehicle id="veh39" type="veh_passenger" depart="129.60" departLane="best">
        <route edges="273924628#1 273924628#2 273924628#3 34634718#3 34634718#4 34634718#5 34634718#6 34634718#7 -31714691#18 -31714691#17 -31714691#15 -31714691#14 -31714691#13 -31714691#12 174762085#5"/>
    </vehicle>
    <vehicle id="veh40" type="veh_passenger" depart="132.92" departLane="best">
        <route edges="907638075#3 907638076#1 907638076#2 202548515#3 202548515#4 202548515#5 34634718#0 34634718#1 273924628#4 273924628#5 273924628#6 273924628#7 273924628#10 174762072#0 174762072#1 465069434#1 465069434#4 772134681#4 772134681#5 772134681#6 28957185#1 28957185#2 30418925#0 30418925#1"/>
    </vehicle>
    <vehicle id="veh41" type="veh_passenger" depart="136.24" departLane="best">
        <route edges="-461646075 462356798#12 462356798#13 462356798#14 462356798#15 202548515#5 34634718#0 34634718#1 34634718#3 34634718#4 34634718#5 34634718#6 34634718#7 -31714691#18 -31714691#17 -31714691#15 -31714691#14 -31714691#13 -31714691#12 -31714691#10 -31714691#9 -31714691#8 -31714691#7 -31714691#6 -31714691#5 -31714691#4 -31714691#3"/>
    </vehicle>
    <vehicle id="veh42" type="veh_passenger" depart="139.57" departLane="best">
        <route edges="-461646082#7 903981751#6 903981751#7 903981751#8 903981751#9 903981751#10 903981751#11 273924628#0 273924628#1 273924628#2 273924628#3 34634718#3 34634718#4 34634718#5 34634718#6 34634718#7 -31714691#18 -31714691#17 -31714691#15 -31714691#14 33884451#2 33884451#3"/>
    </vehicle>
    <vehicle id="veh43" type="veh_passenger" depart="142.89" departLane="best" departSpeed="max">
        <route edges="462356798#0 462356798#1 462356798#2 462356798#3 462356798#4 462356798#5 462356798#6 462356798#8 462356798#9 462356798#10 462356798#11 462356798#12 462356798#13 462356798#14 462356798#15 462356798#16 462356798#17 462356798#18 462356798#19 27524740#5 27524740#8 27524740#11 27524740#12"/>
    </vehicle>
    <vehicle id="veh44" type="veh_passenger" depart="146.21" departLane="best">
        <route edges="-34634718#0 256464040#11 256464040#12 548925358#0 462356798#15 202548515#5 34634718#0 34634718#1 273924628#4 273924628#5 273924628#6 273924628#7"/>
    </vehicle>
    <vehicle id="veh45" type="veh_passenger" depart="149.53" departLane="best">
        <route edges="907638075#1 907638075#3 907638076#1 907638076#2 202548515#3 202548515#4 202548515#5 34634718#0 34634718#1 34634718#3 34634718#4 34634718#5 34634718#6 34634718#7 -31714691#18 -31714691#17 -31714691#15 -31714691#14 -31714691#13 -31714691#12 -31714691#10 -31714417 31714403#1"/>
    </vehicle>
    <vehicle id="veh46" type="veh_passenger" depart="152.86" departLane="best">
        <route edges="903981749#7 903981751#0 903981751#1 903981751#2 903981751#3 903981751#6 903981751#7 903981751#8 903981751#9 903981751#10 903981751#11 273924628#0 273924628#1 273924628#2 273924628#3 273924628#4 273924628#5 273924628#6 273924628#7 273924628#10 174762072#0 174762072#1 465069434#1 465069434#4 465069434#7 465069434#10 465069434#13 30175871#9 772134678#1 66705748#2"/>
    </vehicle>
    <vehicle id="veh47" type="veh_passenger" depart="156.18" departLane="best">
        <route edges="-28578165 28578165 28578166#2 28578166#3 28578166#4 28578166#5 28578166#6 28578166#7 28578166#8 28578166#9 28578166#10 28578166#11 28578166#12 380083522#3 465069431#1 465069431#4 465069431#7 465069431#10 465069431#13 465069431#16 465069436#1 465069436#2 27524740#0 27524740#1 27524740#3 27524740#4 27524740#5 27524740#8 256838382#11 256838382#12 256838382#13 256838382#14 432399497#0"/>
    </vehicle>
    <vehicle id="veh48" type="veh_passenger" depart="159.50" departLane="best">
        <route edges="256449138#2 28957185#2 30418925#0 30418925#1 31714691#3 31714691#4 31714691#5 31714691#6 31714691#7 31714691#8 31714691#9 31714691#10 31714691#12 31714691#13 31714691#14 31714691#15 31714691#17 31714691#18 31714691#19 31714691#20 31714691#21 31714691#22 31714691#23 34634616#3 34634616#4"/>
    </vehicle>
    <vehicle id="veh49" type="veh_passenger" depart="162.83" departLane="best">
        <route edges="-461646082#9 -461646082#8 -461646082#7 903981751#6 903981751#7 903981751#8 903981751#9 903981751#10 903981751#11 273924628#0 273924628#1 273924628#2 273924628#3 273924628#4 273924628#5 273924628#6 273924628#7 273924628#10 174762072#0 174762072#1 465069434#1 465069434#4 465069434#7 465069434#10 465069434#13 465069434#16 465069432#1 465069432#3 465069432#4 28957185#7 28578166#6 28578166#7 28578166#8 28578166#9 28578166#10 28578166#11"/>
    </vehicle>
    <vehicle id="veh50" type="veh_passenger" depart="166.15" departLane="best" departSpeed="max">
        <route edges="28578166#0 28578166#1 28578166#2 28578166#3 28578166#4 28578166#5 28578166#6 28578166#7 28578166#8 28578166#9 28578166#10 28578166#11 28578166#12 380083522#3 465069431#1 30175871#9 772134678#1 772134677#1 772134677#2 772134677#3 772134677#4 772134677#5"/>
    </vehicle>
    <vehicle id="veh51" type="veh_passenger" depart="169.47" departLane="best" departSpeed="max">
        <route edges="600354682#0 600354682#3 600354682#4 600354682#5 600354682#6 256457175#0"/>
    </vehicle>
    <vehicle id="veh52" type="veh_passenger" depart="172.79" departLane="best">
        <route edges="28957185#7 28578166#6 28578166#7 28578166#8 28578166#9 28578166#10 28578166#11 28578166#12 380083522#3 465069431#1 465069431#4 465069431#7 465069431#10 465069431#13 465069431#16 465069436#1 465069436#2 27524740#0 27524740#1 27524740#3 27524740#4 27524740#5 160731913#11 160731913#12 160731913#13 160731913#14 160731913#15 160731913#16 160731913#17 160731913#18"/>
    </vehicle>
    <vehicle id="veh53" type="veh_passenger" depart="176.12" departLane="best">
        <route edges="753485944#11 385665653 273924626#0 273924626#1 273924626#2 273924626#3 461646082#7 461646082#8 753485946#1 753485946#2 -680327765#7 680327765#7"/>
    </vehicle>
    <vehicle id="veh54" type="veh_passenger" depart="179.44" departLane="best">
        <route edges="256838382#16 268192646#2 268192646#3 268192646#4 268192646#5 268192646#6 268192646#7 772134682#1 465069431#13 465069431#16 465069436#1 465069436#2 273924625#1 273924625#4 273924625#5 273924625#6 273924625#7 273924625#8 34634616#0 34634616#1 34634616#2"/>
    </vehicle>
    <vehicle id="veh55" type="veh_passenger" depart="182.76" departLane="best">
        <route edges="31714691#24 31714691#25 -31714691#25 -31714691#24 -31714691#23 -31714691#22 -31714691#21 -31714691#20 -31714691#19 -31714691#18 -31714691#17 -31714691#15 -31714691#14 -31714691#13 -31714691#12 -31714691#10 162566120 103393229#21 103393229#22"/>
    </vehicle>
    <vehicle id="veh56" type="veh_passenger" depart="186.09" departLane="best">
        <route edges="461646074#0 -461646074#0 461646073#1 160731913#22 160731913#23 753485944#1 753485944#4 753485944#6 31714632#8 31714632#9 31714632#10 31714632#11 31714632#12"/>
    </vehicle>
    <vehicle id="veh57" type="veh_passenger" depart="189.41" departLane="best">
        <route edges="461646082#15 -461646082#15 -461646082#14 -461646082#13 -461646082#12 -461646082#11 -461646082#10 -461646082#9 -461646082#8 -461646082#7 903981751#6 903981751#7 903981751#8 903981751#9 903981751#10 903981751#11 273924628#0 273924628#1 273924628#2 273924628#3 34634718#3 34634718#4 34634718#5 34634718#6 34634718#7 -31714691#18 -31714691#17 -31714691#15 -31714691#14 -31714691#13 -31714691#12 -31714691#10 -31714691#9 -31714691#8 -31714691#7 -31714691#6 -31714691#5 -31714691#4 256449138#1 31714493"/>
    </vehicle>
    <vehicle id="veh58" type="veh_passenger" depart="192.73" departLane="best">
        <route edges="-157257183 157257183 -461646082#13 -461646082#12 -461646082#11 -461646082#10 462356798#3 462356798#4 462356798#5 462356798#6 462356798#8 462356798#9 462356798#10 462356798#11 462356798#12 462356798#13 462356798#14 462356798#15 462356798#16 462356798#17 462356798#18 462356798#19 462356798#23 462356798#24 462356798#25 247998818#0 247998818#1 247998818#2 256838382#16 268192646#2 268192646#3"/>
    </vehicle>
    <vehicle id="veh59" type="veh_passenger" depart="196.06" departLane="best">
        <route edges="-296684661#7 296684661#7 903981751#0 903981751#1 903981751#2 903981751#3 903981751#6 903981751#7 903981751#8 903981751#9 903981751#10 903981751#11 273924628#0 273924628#1 273924628#2 32062719#8 32062719#9 753485948#0"/>
    </vehicle>
    <vehicle id="veh60" type="veh_passenger" depart="199.38" departLane="best">
        <route edges="600354682#4 600354682#5 600354682#6 160731913#7 160731913#11 160731913#12 160731913#13 160731913#14 160731913#15 160731913#16 160731913#17 202548515#4 202548515#5 34634718#0 34634718#1 273924625#7 273924625#8 273924625#9 273924625#10 385665653 273924626#0 273924626#1 273924626#2 273924626#3 273924626#6 273924626#8 273924626#9 531353909#0"/>
    </vehicle>
    <vehicle id="veh61" type="veh_passenger" depart="202.70" departLane="best">
        <route edges="256838382#6 256838382#7 297864033#18 160731913#11 160731913#12 160731913#13 160731913#14 160731913#15 160731913#16 160731913#17 202548515#4 202548515#5 256464040#11 256464040#12 256464040#13 753485948#0 -330542742"/>
    </vehicle>
    <vehicle id="veh62" type="veh_passenger" depart="206.02" departLane="best">
        <route edges="600354682#3 600354682#4 600354682#5 600354682#6 256457175#0 256457175#1 256457175#2 256457175#3 256457175#4 256457175#5 256457175#6 465069434#1 465069434#4 465069434#7 465069434#10 772134675#4 772134675#5"/>
    </vehicle>
    <vehicle id="veh63" type="veh_passenger" depart="209.35" departLane="best">
        <route edges="-435499787#1 -435499787#0 31714417 31714691#10 20927292#4 20927292#5 20927292#6 20927292#7 27524740#0 27524740#1 27524740#3 27524740#4 27524740#5 27524740#8 297864033#18 297864033#21"/>
    </vehicle>
    <vehicle id="veh64" type="veh_passenger" depart="212.67" departLane="best">
        <route edges="-34634718#5 -34634718#4 -34634718#3 -34634718#1 -34634718#0 256464040#11 256464040#12 256464040#13 753485948#0 -330542742 462356798#11 462356798#12"/>
    </vehicle>
    <vehicle id="veh65" type="veh_passenger" depart="215.99" departLane="best">
        <route edges="461646077#1 907638075#3 907638076#1 907638076#2 256838382#1 256838382#2 256838382#3 256838382#4 256838382#5 256838382#6 256838382#7 256838382#11 256838382#12 256838382#13 256838382#14 256838382#15 256838382#16 256838382#17 256838382#18 256838382#19 256838382#20 -843908924#1 -843908924#0"/>
    </vehicle>
    <vehicle id="veh66" type="veh_passenger" depart="219.32" departLane="best">
        <route edges="28957176#5 28957176#6 256464040#0 256464040#1 256464040#2 256457175#4 256457175#5 256457175#6 465069436#1 465069436#2 273924625#1 273924625#4 273924625#5 273924625#6 273924625#7 273924625#8 273924625#9 273924625#10 385665653 273924626#0 273924626#1 273924626#2 273924626#3 461646082#7 31714632#4"/>
    </vehicle>
    <vehicle id="veh67" type="veh_passenger" depart="222.64" departLane="best">
        <route edges="256449138#1 256449138#2 256449138#3 256449138#4 256449138#5 465069434#10 465069434#13 30175871#9 772134678#1 772134677#1 772134677#2 772134677#3 772134677#4 256838382#20 699186482"/>
    </vehicle>
    <vehicle id="veh68" type="veh_passenger" depart="225.96" departLane="best">
        <route edges="273924632#2 753485944#9 753485944#10 903981751#11 273924628#0 273924628#1 273924628#2 273924628#3 273924628#4 273924628#5 273924628#6 273924628#7 273924628#10 174762085#1"/>
    </vehicle>
    <vehicle id="veh69" type="veh_passenger" depart="229.29" departLane="best">
        <route edges="30175871#3 30175871#4 30175871#5 465069431#4 465069431#7 465069431#10 465069431#13 465069431#16 465069436#1 465069436#2 273924625#1 273924625#4 273924625#5 273924625#6 -34634718#1 -34634718#0 256464040#11 256464040#12 256464040#13 753485948#0 -330542742 462356798#11 462356798#12 461646073#0 461646074#0"/>
    </vehicle>
    <vehicle id="veh70" type="veh_passenger" depart="232.61" departLane="best">
        <route edges="174762072#1 465069436#1 465069436#2 273924625#1 273924625#4 273924625#5 273924625#6 273924625#7 273924625#8 273924625#9 273924625#10 385665653 273924626#0 273924626#1 103393228#0 103393228#1 103393228#2 103393229#5 103393229#6 103393229#7 26694547#7 26694547#8 26694547#9 26694547#10"/>
    </vehicle>
    <vehicle id="veh71" type="veh_passenger" depart="235.93" departLane="best">
        <route edges="907638075#0 907638075#1 907638075#3 907638076#1 907638076#2 256838382#1 256838382#2 256838382#3 256838382#4 256838382#5 256838382#6 34634619#1 34634619#2"/>
    </vehicle>
    <vehicle id="veh72" type="veh_passenger" depart="239.25" departLane="best">
        <route edges="27524740#3 256464040#7 202548488#8 202548488#9 34634614#1 34634614#2 33884451#0 33884451#1 -31714691#13 -31714691#12 -31714691#10 -31714691#9 -31714691#8 -31714691#7 -31714691#6 -31714691#5 30547807"/>
    </vehicle>
    <vehicle id="veh73" type="veh_passenger" depart="242.58" departLane="best">
        <route edges="-597425795 103393229#3 -461646082#1 -31714691#29 -31714691#28 -31714691#27 -31714691#25 -31714691#24 -31714691#23 -31714691#22 -31714691#21 -31714691#20 -31714691#19 -31714691#18 -31714691#17 -31714691#15 -31714691#14 -31714691#13 -31714691#12 174762085#5 174762085#6 174762085#9"/>
    </vehicle>
    <vehicle id="veh74" type="veh_passenger" depart="245.90" departLane="best" departSpeed="max">
        <route edges="202548515#0 202548515#3 202548515#4 202548515#5 34634718#0 34634718#1 34634718#3 34634718#4 34634718#5 34634718#6 34634718#7 -31714691#18 -31714691#17 -31714691#15 -31714691#14 -31714691#13 -31714691#12 174762085#5"/>
    </vehicle>
    <vehicle id="veh75" type="veh_passenger" depart="249.22" departLane="best">
        <route edges="-34634718#7 -34634718#6 -34634718#5 -34634718#4 -34634718#3 273924628#4 273924628#5 273924628#6 273924628#7 34634614#1 34634614#2"/>
    </vehicle>
    <vehicle id="veh76" type="veh_passenger" depart="252.55" departLane="best" departSpeed="max">
        <route edges="202548515#0 202548515#3 160731913#18 160731913#19 160731913#20 160731913#21 160731913#22 160731913#23 753485944#1 753485944#4"/>
    </vehicle>
    <vehicle id="veh77" type="veh_passenger" depart="255.87" departLane="best">
        <route edges="531353909#1 903981749#0 903981749#7 903981751#0 903981751#1 903981751#2 903981751#3 903981751#6 903981751#7 903981751#8 903981751#9 903981751#10 903981751#11 273924628#0 273924628#1 273924628#2 273924628#3 34634718#3 34634718#4 34634718#5 34634718#6 34634718#7 34634718#8 34634718#9 -34634718#9"/>
    </vehicle>
    <vehicle id="veh78" type="veh_passenger" depart="259.19" departLane="best" departSpeed="max">
        <route edges="20927292#0 20927292#1 20927292#4 20927292#5 20927292#6 20927292#7 27524740#0 27524740#1 27524740#3 27524740#4 27524740#5 160731913#11 160731913#12 160731913#13 160731913#14 160731913#15 160731913#16 34634623#0 34634623#1 34634623#2"/>
    </vehicle>
    <vehicle id="veh79" type="veh_passenger" depart="262.52" departLane="best" departSpeed="max">
        <route edges="202548488#0 202548488#3 202548488#4 160731913#13 160731913#14 160731913#15 160731913#16 160731913#17 202548515#4 202548515#5 34634718#0 34634718#1 273924625#7 273924625#8 273924625#9 273924625#10 385665653 273924626#0 273924626#1 273924626#2 273924626#3 273924626#6 273924626#8 273924626#9 296206306#0 296206306#1 531155907#0 103393225#1 103393225#2"/>
    </vehicle>
    <vehicle id="veh80" type="veh_passenger" depart="265.84" departLane="best">
        <route edges="753485947#3 907638076#1 907638076#2 202548515#3 202548515#4 202548515#5 34634718#0 34634718#1 34634718#3 34634718#4 34634718#5 34634718#6 34634718#7 31714691#19 31714691#20 31714691#21 31714691#22 31714691#23 31714691#24"/>
    </vehicle>
    <vehicle id="veh81" type="veh_passenger" depart="269.16" departLane="best">
        <route edges="462356798#2 -461646082#9 -461646082#8 -461646082#7 903981751#6 903981751#7 903981751#8 903981751#9 903981751#10 753485944#11 753485944#12 753485944#13 753485944#14 103393229#9 103393229#10 103393229#11 103393229#12 162566108"/>
    </vehicle>
    <vehicle id="veh82" type="veh_passenger" depart="272.48" departLane="best">
        <route edges="-461646081#0 461646081#0 -461646080 41204044#6 41204044#7 41204044#8 903981751#3 903981751#6 903981751#7 903981751#8 903981751#9 903981751#10 903981751#11 273924628#0 273924628#1 273924628#2 273924628#3 34634718#3 34634718#4 34634718#5 34634718#6 34634718#7 -31714691#18 -31714691#17 -31714691#15 -31714691#14 -31714691#13 -31714691#12 -31714691#10 -31714691#9 -31714691#8 -31714691#7 -31714691#6 -31714691#5 -31714691#4 -31714691#3 -31714691#2 -31714691#1 -31714691#0 -28578165 28578165"/>
    </vehicle>
    <vehicle id="veh83" type="veh_passenger" depart="275.81" departLane="best">
        <route edges="273924632#2 753485944#9 753485944#10 903981751#11 273924628#0 273924628#1 273924628#2 273924628#3 273924628#4 273924628#5 273924628#6 273924628#7 273924628#10 174762072#0 174762072#1 465069434#1 465069434#4 772134681#4 772134681#5 772134681#6 28957185#1"/>
    </vehicle>